geometry optimzed in LAMMPS
_audit_creation_date              2020-11-30 
_audit_creation_method            'lammps2cif' 
_symmetry_space_group_name_H-M    'P1' 
_symmetry_Int_Tables_number       1 
_symmetry_cell_setting            triclinic 
loop_ 
_symmetry_equiv_pos_as_xyz 
  x,y,z 
_cell_length_a                    38.63586620506975 
_cell_length_b                    40.055883911651115 
_cell_length_c                    43.97514306423148 
_cell_angle_alpha                 89.38519276722384 
_cell_angle_beta                  91.01732204044637 
_cell_angle_gamma                 121.60035470069676 
loop_ 
_atom_site_label 
_atom_site_type_symbol 
_atom_site_fract_x 
_atom_site_fract_y 
_atom_site_fract_z 
_atom_site_charge 
C1          C  0.49547849  0.03672704  0.00210996     0.01910
C2          C  0.45872890  0.50062839  0.00018780     0.01910
C3          C  0.45748684  0.46453301  0.99953583     0.01910
C4          C  0.99407073  0.46416919  0.00016105     0.01910
C5          C  0.03123197  0.00079683  0.99960611     0.01910
C6          C  0.03151412  0.03639999  0.00015325     0.01910
O7          O  0.24332618  0.23993380  0.03008554    -0.73320
O8          O  0.24687715  0.24661518  0.43743080    -0.74300
O9          O  0.29861522  0.29461835  0.48689061    -0.62920
O10         O  0.19658808  0.19333430  0.48152938    -0.71330
O11         O  0.16063706  0.22210157  0.48441570    -0.70880
O12         O  0.26571786  0.32647555  0.48553635    -0.62140
O13         O  0.21088039  0.27505773  0.43914741    -0.74650
O14         O  0.21160833  0.27261551  0.02965873    -0.73430
Cu15       Cu  0.24799637  0.24301444  0.48384449     1.04560
Cu16       Cu  0.21137406  0.27551393  0.48454938     1.04330
C17         C  0.22414272  0.25312168  0.04417454     0.92880
C18         C  0.22629395  0.25929792  0.42379434     0.92020
C19         C  0.29875811  0.32639326  0.48748659     0.84160
C20         C  0.16291108  0.19142487  0.48357872     0.90430
O21         O  0.23172926  0.48037215  0.03310858    -0.73320
O22         O  0.24220383  0.48457645  0.44110198    -0.74300
O23         O  0.28600200  0.48159194  0.99138664    -0.62920
O24         O  0.18411875  0.48125748  0.98304635    -0.71330
O25         O  0.21841275  0.04624221  0.98678194    -0.70880
O26         O  0.32206692  0.04686521  0.99195507    -0.62140
O27         O  0.27503779  0.04920540  0.44411301    -0.74650
O28         O  0.26793411  0.04541720  0.03405964    -0.73430
Cu29       Cu  0.23445832  0.47960995  0.98698836     1.04560
Cu30       Cu  0.27181200  0.04917757  0.98914585     1.04330
C31         C  0.24983615  0.01265055  0.04800107     0.92880
C32         C  0.26241129  0.01829392  0.42832818     0.92020
C33         C  0.31978588  0.01393095  0.99301528     0.84160
C34         C  0.18487623  0.01335653  0.98475793     0.90430
C35         C  0.18673956  0.11866406  0.29907408     0.02750
C36         C  0.22876726  0.14242180  0.29387085    -0.13400
C37         C  0.25418752  0.12752142  0.29860525     0.00250
C38         C  0.23594755  0.08760467  0.30666058    -0.11920
C39         C  0.19334609  0.06366215  0.31058272     0.02740
C40         C  0.17028859  0.08103130  0.31064259    -0.11340
H41         H  0.24105258  0.17124862  0.28390111     0.08340
H42         H  0.25388866  0.07421189  0.30630623     0.05870
H43         H  0.13751047  0.06244779  0.31254456     0.05720
O44         O  0.50844395  0.29227920  0.30671718    -0.73320
O45         O  0.50480076  0.28563052  0.21596659    -0.74300
O46         O  0.44483727  0.25731789  0.26297473    -0.62920
O47         O  0.06955887  0.32076921  0.26077721    -0.71330
O48         O  0.06941496  0.26540033  0.26319303    -0.70880
O49         O  0.44570425  0.20246927  0.26635810    -0.62140
O50         O  0.50417429  0.22991632  0.21863383    -0.74650
O51         O  0.51022367  0.23774615  0.30932905    -0.73430
Cu52       Cu  0.50700233  0.29099349  0.26129324     1.04560
Cu53       Cu  0.50747779  0.23205135  0.26425360     1.04330
C54         C  0.50914982  0.26555718  0.32224020     0.92880
C55         C  0.50304321  0.25639437  0.20300476     0.92020
C56         C  0.42594777  0.22001482  0.26636541     0.84160
C57         C  0.08909165  0.30294873  0.26270962     0.90430
C58         C  0.33620705  0.44167142  0.26401666     0.02750
C59         C  0.35209978  0.41755908  0.26303120    -0.13400
C60         C  0.32611972  0.37700788  0.26415226     0.00250
C61         C  0.28441923  0.36091796  0.27091608    -0.11920
C62         C  0.26732611  0.38438412  0.27015504     0.02740
C63         C  0.29375937  0.42492488  0.26658167    -0.11340
H64         H  0.38368991  0.42998783  0.25712550     0.08340
H65         H  0.26404939  0.32951899  0.27229473     0.05870
H66         H  0.28071512  0.44282473  0.26439079     0.05720
O67         O  0.17603004  0.25309319  0.27907338    -0.73320
O68         O  0.15718174  0.23381990  0.18285827    -0.74300
O69         O  0.09848237  0.20147485  0.23981832    -0.62920
O70         O  0.21345596  0.30349776  0.22062208    -0.71330
O71         O  0.19989759  0.24771130  0.22911396    -0.70880
O72         O  0.15630017  0.21149692  0.23352771    -0.62140
O73         O  0.19122730  0.20083620  0.18696983    -0.74650
O74         O  0.20474065  0.21526178  0.27879898    -0.73430
Cu75       Cu  0.15991836  0.24860190  0.23056248     1.04560
Cu76       Cu  0.19959207  0.20279306  0.23325510     1.04330
C77         C  0.19428525  0.23705925  0.29287666     0.92880
C78         C  0.17550193  0.21742882  0.17077568     0.92020
C79         C  0.12090214  0.18818144  0.24154686     0.84160
C80         C  0.22663899  0.28129378  0.22211474     0.90430
O81         O  0.29769995  0.06083776  0.18917063    -0.73320
O82         O  0.30694523  0.06480300  0.28609312    -0.74300
O83         O  0.36960757  0.11088672  0.23478823    -0.62920
O84         O  0.24381134  0.03437962  0.24070163    -0.71330
O85         O  0.23990412  0.97743062  0.24140414    -0.70880
O86         O  0.31771285  0.55311083  0.23681565    -0.62140
O87         O  0.30018490  0.00532177  0.28440721    -0.74650
O88         O  0.29205286  0.00160300  0.19142669    -0.73430
Cu89       Cu  0.30527620  0.06877239  0.23738369     1.04560
Cu90       Cu  0.29864850  0.99934795  0.23777730     1.04330
C91         C  0.29101340  0.02903603  0.17620827     0.92880
C92         C  0.30164865  0.03355125  0.29956633     0.92020
C93         C  0.35554300  0.07517437  0.23709674     0.84160
C94         C  0.22350135  0.99730799  0.24418467     0.90430
O95         O  0.46494477  0.28631657  0.01017519    -0.73320
O96         O  0.46580204  0.18471924  0.01110848    -0.74300
O97         O  0.46506439  0.23514902  0.05698132    -0.62920
O98         O  0.46696572  0.23698847  0.46539881    -0.71330
O99         O  0.03428920  0.27249703  0.46797489    -0.70880
O100        O  0.03246178  0.26866832  0.05785297    -0.62140
O101        O  0.03314264  0.21887943  0.01138365    -0.74650
O102        O  0.03218762  0.32104212  0.01341091    -0.73430
Cu103      Cu  0.46330010  0.23450295  0.01098605     1.04560
Cu104      Cu  0.03527494  0.27134737  0.01281263     1.04330
C105        C  0.49828376  0.31963896  0.01117408     0.92880
C106        C  0.49945698  0.18569972  0.01058650     0.92020
C107        C  0.49881389  0.25223025  0.07182770     0.84160
C108        C  0.50141740  0.25568351  0.45235898     0.90430
C109        C  0.33127087  0.35681700  0.21478102    -0.26690
C110        C  0.33725887  0.35315784  0.24599715    -0.14770
C111        C  0.32260769  0.31488069  0.25653633     0.35860
C112        C  0.28749980  0.28437006  0.24258640    -0.26140
C113        C  0.26942774  0.29394008  0.21873849    -0.15380
C114        C  0.29419865  0.32802830  0.20179219     0.36950
N115        N  0.27904652  0.33577388  0.17437061    -0.89630
H116        H  0.34724626  0.38543379  0.20411171     0.18060
H117        H  0.27111877  0.25628377  0.25386089     0.18050
N118        N  0.33792508  0.30804900  0.28418383    -0.88660
H119        H  0.29966461  0.34129863  0.15711488     0.35430
H120        H  0.27832237  0.36123425  0.17758120     0.40530
H121        H  0.33600419  0.32482786  0.30136755     0.40150
H122        H  0.36867837  0.31824877  0.28113263     0.35040
C123        C  0.37734782  0.51196047  0.27852756    -0.26690
C124        C  0.36254481  0.48326153  0.25583236    -0.14770
C125        C  0.36736977  0.49462240  0.22503417     0.35860
C126        C  0.37755530  0.53288149  0.21774572    -0.26140
C127        C  0.38101392  0.05819484  0.24092542    -0.15380
C128        C  0.38772263  0.55030242  0.27100758     0.36950
N129        N  0.39760513  0.57888857  0.29434749    -0.89630
H130        H  0.37595960  0.50348203  0.30216806     0.18060
H131        H  0.37506896  0.04017356  0.19432038     0.18050
N132        N  0.35739195  0.46619487  0.20154195    -0.88660
H133        H  0.39945023  0.56783303  0.31556336     0.35430
H134        H  0.42659604  0.10284748  0.28984124     0.40530
H135        H  0.37827958  0.45716352  0.20340424     0.40150
H136        H  0.36190720  0.47931278  0.18015082     0.35040
C137        C  0.03059205  0.28612332  0.15330416    -0.26690
C138        C  0.50062305  0.25396638  0.16958882    -0.14770
C139        C  0.46926640  0.22113552  0.15358416     0.35860
C140        C  0.46892863  0.22156910  0.12169389    -0.26140
C141        C  0.49940037  0.25349570  0.10541522    -0.15380
C142        C  0.03054182  0.28622509  0.12143057     0.36950
N143        N  0.06168367  0.31971695  0.10532050    -0.89630
H144        H  0.05440525  0.31125387  0.16560441     0.18060
H145        H  0.44487777  0.19645820  0.10954414     0.18050
N146        N  0.43662219  0.18757040  0.16859835    -0.88660
H147        H  0.08248799  0.34100594  0.12049614     0.35430
H148        H  0.04761970  0.33230182  0.09350653     0.40530
H149        H  0.43862940  0.19067508  0.19215132     0.40150
H150        H  0.43906556  0.16340994  0.16368963     0.35040
C151        C  0.03896092  0.26553629  0.37202459    -0.26690
C152        C  0.50810588  0.26608887  0.35543407    -0.14770
C153        C  0.47519656  0.26398647  0.37060355     0.35860
C154        C  0.47282040  0.25925609  0.40231332    -0.26140
C155        C  0.50373348  0.25857444  0.41899847    -0.15380
C156        C  0.03765061  0.26274602  0.40374834     0.36950
N157        N  0.07053811  0.26392819  0.42048711    -0.89630
H158        H  0.06407939  0.26707596  0.36019922     0.18060
H159        H  0.44729594  0.25703521  0.41410155     0.18050
N160        N  0.44381950  0.26544456  0.35372389    -0.88660
H161        H  0.09469228  0.27105887  0.40617903     0.35430
H162        H  0.06006640  0.23581061  0.42901885     0.40530
H163        H  0.45669364  0.29352165  0.34437759     0.40150
H164        H  0.42094953  0.26186253  0.36823005     0.35040
C165        C  0.15871382  0.35037492  0.24206329    -0.26690
C166        C  0.13470544  0.32559933  0.26576515    -0.14770
C167        C  0.15496484  0.32195985  0.29179202     0.35860
C168        C  0.19783406  0.34160586  0.29280570    -0.26140
C169        C  0.22178117  0.36588033  0.26895326    -0.15380
C170        C  0.20169202  0.37007978  0.24330168     0.36950
N171        N  0.22472482  0.39240480  0.21757605    -0.89630
H172        H  0.14399497  0.35343739  0.22194182     0.18060
H173        H  0.21262105  0.33784212  0.31257715     0.18050
N174        N  0.13326107  0.29893379  0.31783294    -0.88660
H175        H  0.21542022  0.37357794  0.19887332     0.35430
H176        H  0.21738855  0.41358586  0.21279000     0.40530
H177        H  0.10202729  0.28655379  0.31528398     0.40150
H178        H  0.14220824  0.31784775  0.33646130     0.35040
C179        C  0.15153077  0.01390658  0.27235624    -0.26690
C180        C  0.17207685  0.02222306  0.30070572    -0.14770
C181        C  0.18480003  0.99700979  0.31114195     0.35860
C182        C  0.18761796  0.97274082  0.28992562    -0.26140
C183        C  0.18406409  0.97917502  0.25883222    -0.15380
C184        C  0.15894992  0.99336490  0.25047894     0.36950
N185        N  0.14691175  0.99228509  0.21920972    -0.89630
H186        H  0.13651764  0.02918357  0.26535004     0.18060
H187        H  0.20300211  0.95771284  0.29684823     0.18050
N188        N  0.19893178  0.99866601  0.34177888    -0.88660
H189        H  0.12931291  0.00502314  0.21684226     0.35430
H190        H  0.17307481  0.00947337  0.20645693     0.40530
H191        H  0.19490868  0.51812722  0.35465844     0.40150
H192        H  0.18045658  0.47094020  0.35144362     0.35040
C193        C  0.13381294  0.13587677  0.30104781    -0.26690
C194        C  0.15810007  0.12694475  0.28383469    -0.14770
C195        C  0.15215468  0.12250199  0.25196561     0.35860
C196        C  0.12549641  0.13138565  0.23783486    -0.26140
C197        C  0.11018269  0.15037094  0.25432108    -0.15380
C198        C  0.10967746  0.14800804  0.28629242     0.36950
N199        N  0.09000119  0.16366096  0.30334393    -0.89630
H200        H  0.13640053  0.13663986  0.32564321     0.18060
H201        H  0.12461328  0.13202572  0.21317661     0.18050
N202        N  0.17532312  0.11252939  0.23310652    -0.88660
H203        H  0.09405537  0.16139096  0.32668512     0.35430
H204        H  0.05881402  0.14612187  0.29880388     0.40530
H205        H  0.20602028  0.13439174  0.23510070     0.40150
H206        H  0.17173074  0.08614445  0.24058025     0.35040
C207        C  0.30939061  0.15872188  0.25971362    -0.26690
C208        C  0.29831739  0.15186835  0.29056188    -0.14770
C209        C  0.32959616  0.16970530  0.31296063     0.35860
C210        C  0.37051869  0.19107537  0.30413374    -0.26140
C211        C  0.38166720  0.19730495  0.27348888    -0.15380
C212        C  0.35065559  0.18169654  0.25096892     0.36950
N213        N  0.36102793  0.18958254  0.21943253    -0.89630
H214        H  0.28566467  0.14618535  0.24238374     0.18060
H215        H  0.39402250  0.20333587  0.32157405     0.18050
N216        N  0.32125061  0.16848918  0.34476078    -0.88660
H217        H  0.33475039  0.17659294  0.20578162     0.35430
H218        H  0.37696883  0.17609705  0.21385910     0.40530
H219        H  0.29019870  0.15146197  0.34905683     0.40150
H220        H  0.33529596  0.15554264  0.35599903     0.35040
C221        C  0.26728757  0.04748347  0.12961251    -0.26690
C222        C  0.27956840  0.02333971  0.14326880    -0.14770
C223        C  0.27760669  0.99287187  0.12580717     0.35860
C224        C  0.26395976  0.98774751  0.09534093    -0.26140
C225        C  0.25326670  0.01291221  0.08156197    -0.15380
C226        C  0.25354077  0.04231697  0.09936103     0.36950
N227        N  0.23974915  0.06720192  0.08774597    -0.89630
H228        H  0.26737950  0.07027813  0.14272845     0.18060
H229        H  0.26392400  0.96533903  0.08175829     0.18050
N230        N  0.29076969  0.96809844  0.13854235    -0.88660
H231        H  0.21666631  0.56378433  0.10194421     0.35430
H232        H  0.22579476  0.55787114  0.06643217     0.40530
H233        H  0.32212278  0.98572869  0.14223384     0.40150
H234        H  0.28638276  0.94664448  0.12294676     0.35040
C235        C  0.26610257  0.48935475  0.37886039    -0.26690
C236        C  0.27322614  0.02223227  0.39545577    -0.14770
C237        C  0.29303041  0.05917152  0.38078432     0.35520
C238        C  0.30350396  0.06229418  0.35005405    -0.26140
C239        C  0.29510900  0.02933881  0.33309907    -0.15380
C240        C  0.27688245  0.99251474  0.34804489     0.36950
N241        N  0.26803268  0.45791892  0.33197152    -0.89630
H242        H  0.25182885  0.46085684  0.38973100     0.18060
H243        H  0.31786413  0.09082948  0.33928344     0.18050
N244        N  0.30229819  0.09380141  0.39692228    -0.88660
H245        H  0.23686463  0.43746209  0.33342422     0.35430
H246        H  0.28341891  0.44606388  0.34295241     0.40530
H247        H  0.28652324  0.10552217  0.38644749     0.40150
H248        H  0.33355032  0.11399475  0.39564619     0.35040
C249        C  0.18114800  0.24798506  0.08763958    -0.26690
C250        C  0.21242597  0.24324104  0.07675474    -0.14770
C251        C  0.22851601  0.22631311  0.09630225     0.35860
C252        C  0.21431600  0.21636907  0.12631143    -0.26140
C253        C  0.18386027  0.22224402  0.13745380    -0.15380
C254        C  0.16659102  0.23760974  0.11742415     0.36950
N255        N  0.13446235  0.24292999  0.12715316    -0.89630
H256        H  0.16749329  0.25977070  0.07273045     0.18060
H257        H  0.22807594  0.20477425  0.14130160     0.18050
N258        N  0.25972003  0.21992552  0.08606845    -0.88660
H259        H  0.12008069  0.24705126  0.10839084     0.35430
H260        H  0.14794676  0.26909741  0.13946258     0.40530
H261        H  0.24622699  0.19681720  0.07049729     0.40150
H262        H  0.27054101  0.21037801  0.10401590     0.35040
C263        C  0.24407637  0.24899586  0.37152451    -0.26690
C264        C  0.21830017  0.25420754  0.39023433    -0.14770
C265        C  0.18347083  0.25202013  0.37677784     0.35860
C266        C  0.17709574  0.24760291  0.34502377    -0.26140
C267        C  0.20335649  0.24328886  0.32624700    -0.15380
C268        C  0.23673367  0.24311836  0.33997723     0.36950
N269        N  0.26359911  0.23711349  0.32214025    -0.89630
H270        H  0.27017630  0.24937150  0.38140005     0.18060
H271        H  0.15031886  0.24566392  0.33501673     0.18050
N272        N  0.15354846  0.25249006  0.39538782    -0.88660
H273        H  0.26265863  0.21214044  0.33052673     0.35430
H274        H  0.29305940  0.26076772  0.32601381     0.40530
H275        H  0.14084897  0.22746260  0.40915158     0.40150
H276        H  0.12974919  0.24967723  0.38175366     0.35040
C277        C  0.11458487  0.12672306  0.96296978    -0.26690
C278        C  0.12737968  0.15289094  0.48733193    -0.14770
C279        C  0.11189586  0.13952205  0.51665505     0.35860
C280        C  0.08307578  0.10023546  0.52100889    -0.26140
C281        C  0.06911539  0.07428290  0.49646289    -0.15380
C282        C  0.08491948  0.08736836  0.96726588     0.36950
N283        N  0.06954864  0.06114544  0.94186912    -0.89630
H284        H  0.12763219  0.13691088  0.94066952     0.18060
H285        H  0.07005529  0.09012843  0.54332540     0.18050
N286        N  0.12578039  0.16499396  0.54246639    -0.88660
H287        H  0.09394804  0.06109637  0.93200831     0.35430
H288        H  0.05776989  0.07218937  0.92583300     0.40530
H289        H  0.12124029  0.18812034  0.53799511     0.40150
H290        H  0.15684546  0.17621257  0.54532182     0.35040
C291        C  0.35995968  0.36924597  0.51819297    -0.26690
C292        C  0.33799210  0.36281473  0.49092884    -0.14770
C293        C  0.35555447  0.38871306  0.96638591     0.35860
C294        C  0.39525879  0.42089960  0.96959854    -0.26140
C295        C  0.41735494  0.42779601  0.49697243    -0.15380
C296        C  0.39924257  0.40190926  0.52179578     0.36950
N297        N  0.41893281  0.40835484  0.55106322    -0.89630
H298        H  0.34622782  0.34886864  0.53695689     0.18060
H299        H  0.40915887  0.44090514  0.95069686     0.18050
N300        N  0.33324648  0.38188429  0.93828303    -0.88660
H301        H  0.42444876  0.38572058  0.55484421     0.35430
H302        H  0.44699271  0.43461824  0.55187146     0.40530
H303        H  0.32837315  0.35580039  0.92901330     0.40150
H304        H  0.35053239  0.40405013  0.92257368     0.35040
C305        C  0.48858600  0.12306974  0.03376489    -0.26690
C306        C  0.49912279  0.14808814  0.00843678    -0.14770
C307        C  0.00812628  0.13634779  0.48098934     0.35860
C308        C  0.00620740  0.10008298  0.47942967    -0.26140
C309        C  0.49609284  0.07506435  0.00485333    -0.15380
C310        C  0.48776373  0.08736850  0.03258458     0.36950
N311        N  0.47890571  0.06483044  0.06014157    -0.89630
H312        H  0.48163401  0.13171203  0.05496487     0.18060
H313        H  0.01269527  0.09122256  0.45816800     0.18050
N314        N  0.01895971  0.16123108  0.45466397    -0.88660
H315        H  0.50180466  0.08198833  0.07601024     0.35430
H316        H  0.48012147  0.03968620  0.05706226     0.40530
H317        H  0.99370507  0.16288370  0.44825732     0.40150
H318        H  0.02511076  0.14876674  0.43636018     0.35040
C319        C  0.01099903  0.41938214  0.02845639    -0.26690
C320        C  0.49418264  0.42633060  0.00221320    -0.14770
C321        C  0.47967687  0.39802581  0.47853156     0.35860
C322        C  0.48028641  0.36327483  0.48251812    -0.26140
C323        C  0.49738583  0.35663125  0.00865812    -0.15380
C324        C  0.01353184  0.38549436  0.03164037     0.36950
N325        N  0.03160023  0.37992114  0.05851258    -0.89630
H326        H  0.02265590  0.44089076  0.04654834     0.18060
H327        H  0.46870070  0.34184493  0.46434868     0.18050
N328        N  0.46633710  0.40429311  0.44950216    -0.88660
H329        H  0.04068972  0.40303991  0.07373681     0.35430
H330        H  0.05811943  0.38114251  0.05197193     0.40530
H331        H  0.47019747  0.43204291  0.44791958     0.40150
H332        H  0.43532078  0.38349388  0.44707591     0.35040
C333        C  0.07835778  0.49098694  0.46908155    -0.26690
C334        C  0.07018725  0.00241770  0.99676719    -0.14770
C335        C  0.10013170  0.01769328  0.02015693     0.35860
C336        C  0.13807576  0.02278849  0.01467106    -0.26140
C337        C  0.14637104  0.01178712  0.98690919    -0.15380
C338        C  0.11605760  0.49523417  0.46387375     0.36950
N339        N  0.12273678  0.48365674  0.43477790    -0.89630
H340        H  0.05545521  0.47943281  0.45111527     0.18060
H341        H  0.16084112  0.03406175  0.03274552     0.18050
N342        N  0.09271400  0.02682883  0.04997346    -0.88660
H343        H  0.10366174  0.45322317  0.43310491     0.35430
H344        H  0.15251590  0.49018673  0.43264618     0.40530
H345        H  0.06295768  0.02033706  0.05214087     0.40150
H346        H  0.11208802  0.05695695  0.05337941     0.35040
C347        C  0.39786867  0.99356859  0.02306622    -0.26690
C348        C  0.42149551  0.00156389  0.99720068    -0.14770
C349        C  0.41200135  0.51440858  0.46993587     0.35860
C350        C  0.37956525  0.52027277  0.46969202    -0.26140
C351        C  0.35620444  0.01246230  0.99561490    -0.15380
C352        C  0.36504457  0.99873220  0.02244989     0.36950
N353        N  0.34141686  0.99030793  0.04932729    -0.89630
H354        H  0.40547336  0.98394659  0.04389478     0.18060
H355        H  0.37178301  0.52985194  0.44890917     0.18050
N356        N  0.43451701  0.52187005  0.44236623    -0.88660
H357        H  0.31151858  0.96820656  0.04424919     0.35430
H358        H  0.34158967  0.01555068  0.05544643     0.40530
H359        H  0.45738205  0.51551488  0.44478588     0.40150
H360        H  0.41442377  0.50269316  0.42575450     0.35040
C361        C  0.49549143  0.03673480  0.50210916     0.01910
C362        C  0.45873883  0.50063623  0.50018888     0.01910
C363        C  0.45749656  0.46454077  0.49953732     0.01910
C364        C  0.99408057  0.46417699  0.50015987     0.01910
C365        C  0.03124491  0.00080452  0.49960675     0.01910
C366        C  0.03152634  0.03640738  0.50015374     0.01910
O367        O  0.24333368  0.23993931  0.53008959    -0.73320
O368        O  0.24686322  0.24660867  0.93742676    -0.74300
O369        O  0.29860423  0.29461193  0.98688513    -0.62920
O370        O  0.19657687  0.19332757  0.98152658    -0.71330
O371        O  0.16062556  0.22209422  0.98441629    -0.70880
O372        O  0.26570668  0.32646896  0.98553201    -0.62140
O373        O  0.21086331  0.27504826  0.93914544    -0.74650
O374        O  0.21161553  0.27262063  0.52966062    -0.73430
Cu375      Cu  0.24798535  0.24300806  0.98384027     1.04560
Cu376      Cu  0.21136228  0.27550683  0.98454751     1.04330
C377        C  0.22414810  0.25312586  0.54417734     0.92880
C378        C  0.22627740  0.25928948  0.92379172     0.92020
C379        C  0.29874713  0.32638681  0.98748156     0.84160
C380        C  0.16289984  0.19141771  0.98357800     0.90430
O381        O  0.23173764  0.48038037  0.53310846    -0.73320
O382        O  0.24219576  0.48457244  0.94110182    -0.74300
O383        O  0.28601072  0.48159829  0.49138758    -0.62920
O384        O  0.18412757  0.48126377  0.48304559    -0.71330
O385        O  0.21842389  0.04624400  0.48678345    -0.70880
O386        O  0.32207755  0.04686705  0.49195595    -0.62140
O387        O  0.27502775  0.04920551  0.94411158    -0.74650
O388        O  0.26794661  0.04542032  0.53406078    -0.73430
Cu389      Cu  0.23446691  0.47961618  0.48698848     1.04560
Cu390      Cu  0.27182291  0.04917915  0.48914706     1.04330
C391        C  0.24985004  0.01265419  0.54800297     0.92880
C392        C  0.26240013  0.01829428  0.92832616     0.92020
C393        C  0.31979671  0.01393297  0.49301681     0.84160
C394        C  0.18488721  0.01335846  0.48475998     0.90430
C395        C  0.18675229  0.11866271  0.79910247     0.02750
C396        C  0.22878103  0.14241862  0.79390360    -0.13400
C397        C  0.25419422  0.12750802  0.79862413     0.00250
C398        C  0.23594745  0.08758675  0.80666652    -0.11920
C399        C  0.19334606  0.06364865  0.81059009     0.02740
C400        C  0.17029483  0.08102402  0.81066077    -0.11340
H401        H  0.24107083  0.17125001  0.78394131     0.08340
H402        H  0.25388216  0.07418812  0.80630010     0.05870
H403        H  0.13751603  0.06244306  0.81255950     0.05720
O404        O  0.50844237  0.29227033  0.80671772    -0.73320
O405        O  0.50479729  0.28562178  0.71596756    -0.74300
O406        O  0.44483485  0.25730529  0.76297754    -0.62920
O407        O  0.06955573  0.32077216  0.76077688    -0.71330
O408        O  0.06941520  0.26540497  0.76319255    -0.70880
O409        O  0.44570573  0.20245842  0.76635696    -0.62140
O410        O  0.50417772  0.22991097  0.71863351    -0.74650
O411        O  0.51022372  0.23773816  0.80932920    -0.73430
Cu412      Cu  0.50699953  0.29098434  0.76129427     1.04560
Cu413      Cu  0.50747956  0.23204446  0.76425348     1.04330
C414        C  0.50914890  0.26554861  0.82224057     0.92880
C415        C  0.50304379  0.25638796  0.70300502     0.92020
C416        C  0.42594746  0.22000213  0.76636702     0.84160
C417        C  0.08909020  0.30295330  0.76270911     0.90430
C418        C  0.33620635  0.44167422  0.76399955     0.02750
C419        C  0.35209439  0.41755852  0.76300029    -0.13400
C420        C  0.32611124  0.37700766  0.76411864     0.00250
C421        C  0.28441429  0.36092063  0.77089295    -0.11920
C422        C  0.26732468  0.38438956  0.77014226     0.02740
C423        C  0.29375994  0.42493051  0.76657270    -0.11340
H424        H  0.38368193  0.42998533  0.75708766     0.08340
H425        H  0.26404235  0.32952208  0.77227103     0.05870
H426        H  0.28071758  0.44283260  0.76439081     0.05720
O427        O  0.17599611  0.25307476  0.77907293    -0.73320
O428        O  0.15714657  0.23378926  0.68285661    -0.74300
O429        O  0.09845243  0.20142884  0.73982125    -0.62920
O430        O  0.21340077  0.30348018  0.72061638    -0.71330
O431        O  0.19986115  0.24769983  0.72911347    -0.70880
O432        O  0.15628131  0.21147950  0.73352743    -0.62140
O433        O  0.19122264  0.20083547  0.68696939    -0.74650
O434        O  0.20473403  0.21526690  0.77879807    -0.73430
Cu435      Cu  0.15987949  0.24857247  0.73056141     1.04560
Cu436      Cu  0.19958896  0.20279733  0.73325452     1.04330
C437        C  0.19426524  0.23705423  0.79287571     0.92880
C438        C  0.17548385  0.21741484  0.67077438     0.92020
C439        C  0.12088772  0.18815291  0.74155065     0.84160
C440        C  0.22659300  0.28128369  0.72210733     0.90430
O441        O  0.29772968  0.06084835  0.68916952    -0.73320
O442        O  0.30695518  0.06480834  0.78609237    -0.74300
O443        O  0.36963083  0.11088699  0.73479520    -0.62920
O444        O  0.24383013  0.03439453  0.74069335    -0.71330
O445        O  0.23991388  0.97744142  0.74139617    -0.70880
O446        O  0.31770984  0.55311556  0.73681761    -0.62140
O447        O  0.30018389  0.00532238  0.78440824    -0.74650
O448        O  0.29207241  0.00160903  0.69142713    -0.73430
Cu449      Cu  0.30529691  0.06878022  0.73738293     1.04560
Cu450      Cu  0.29865725  0.99935021  0.73777862     1.04330
C451        C  0.29103935  0.02904490  0.67620786     0.92880
C452        C  0.30164997  0.03355382  0.79956626     0.92020
C453        C  0.35556040  0.07517384  0.73710375     0.84160
C454        C  0.22351465  0.99732245  0.74417332     0.90430
O455        O  0.46494951  0.28632104  0.51017629    -0.73320
O456        O  0.46580833  0.18472380  0.51110754    -0.74300
O457        O  0.46506974  0.23515193  0.55698124    -0.62920
O458        O  0.46696172  0.23698349  0.96539864    -0.71330
O459        O  0.03428788  0.27249322  0.96797456    -0.70880
O460        O  0.03246461  0.26867223  0.55785356    -0.62140
O461        O  0.03314612  0.21888379  0.51138380    -0.74650
O462        O  0.03219028  0.32104582  0.51341156    -0.73430
Cu463      Cu  0.46330520  0.23450718  0.51098614     1.04560
Cu464      Cu  0.03527747  0.27135128  0.51281303     1.04330
C465        C  0.49828846  0.31964358  0.51117545     0.92880
C466        C  0.49946373  0.18570509  0.51058519     0.92020
C467        C  0.49881910  0.25223270  0.57182775     0.84160
C468        C  0.50141372  0.25567732  0.95235909     0.90430
C469        C  0.33122552  0.35681263  0.71474014    -0.26690
C470        C  0.33723865  0.35315713  0.74595223    -0.14770
C471        C  0.32259397  0.31488089  0.75649065     0.35860
C472        C  0.28747104  0.28437049  0.74255602    -0.26140
C473        C  0.26938248  0.29393864  0.71871911    -0.15380
C474        C  0.29414140  0.32802422  0.70176622     0.36950
N475        N  0.27896977  0.33576664  0.67435365    -0.89630
H476        H  0.34719418  0.38542812  0.70406823     0.18060
H477        H  0.27109723  0.25628651  0.75383454     0.18050
N478        N  0.33793703  0.30805125  0.78412568    -0.88660
H479        H  0.29957336  0.34128583  0.65708779     0.35430
H480        H  0.27825162  0.36122939  0.67756894     0.40530
H481        H  0.33604169  0.32483926  0.80131447     0.40150
H482        H  0.36868495  0.31824337  0.78105407     0.35040
C483        C  0.37734387  0.51196019  0.77851986    -0.26690
C484        C  0.36254526  0.48326634  0.75582086    -0.14770
C485        C  0.36737445  0.49463431  0.72502417     0.35860
C486        C  0.37755766  0.53289413  0.71774082    -0.26140
C487        C  0.38102510  0.05818880  0.74093862    -0.15380
C488        C  0.38771851  0.55030344  0.77100487     0.36950
N489        N  0.39759837  0.57888462  0.79434844    -0.89630
H490        H  0.37595285  0.50347668  0.80215927     0.18060
H491        H  0.37508464  0.04016432  0.69433497     0.18050
N492        N  0.35740281  0.46621289  0.70152804    -0.88660
H493        H  0.39944200  0.56782492  0.81556279     0.35430
H494        H  0.42660187  0.10284141  0.78985623     0.40530
H495        H  0.37829030  0.45718138  0.70339076     0.40150
H496        H  0.36192385  0.47933666  0.68013891     0.35040
C497        C  0.03059053  0.28612764  0.65330484    -0.26690
C498        C  0.50062533  0.25396182  0.66958893    -0.14770
C499        C  0.46927162  0.22113034  0.65358295     0.35860
C500        C  0.46893487  0.22156615  0.62169270    -0.26140
C501        C  0.49940481  0.25349566  0.60541529    -0.15380
C502        C  0.03054169  0.28622951  0.62143125     0.36950
N503        N  0.06168306  0.31972209  0.60532156    -0.89630
H504        H  0.05440243  0.31125870  0.66560547     0.18060
H505        H  0.44488618  0.19645480  0.60954193     0.18050
N506        N  0.43662916  0.18756236  0.66859577    -0.88660
H507        H  0.08248597  0.34101169  0.62049747     0.35430
H508        H  0.04761824  0.33230561  0.59350687     0.40530
H509        H  0.43863522  0.19066557  0.69214884     0.40150
H510        H  0.43907625  0.16340425  0.66368614     0.35040
C511        C  0.03895738  0.26552843  0.87202403    -0.26690
C512        C  0.50810471  0.26608029  0.85543445    -0.14770
C513        C  0.47520081  0.26398922  0.87060386     0.35860
C514        C  0.47282289  0.25925820  0.90231349    -0.26140
C515        C  0.50373046  0.25856710  0.91899875    -0.15380
C516        C  0.03764691  0.26273734  0.90374774     0.36950
N517        N  0.07053150  0.26391323  0.92048604    -0.89630
H518        H  0.06407322  0.26706324  0.86019809     0.18060
H519        H  0.44730218  0.25704531  0.91410169     0.18050
N520        N  0.44383104  0.26546017  0.85372442    -0.88660
H521        H  0.09468501  0.27104121  0.90617773     0.35430
H522        H  0.06005557  0.23579462  0.92901710     0.40530
H523        H  0.45671390  0.29353890  0.84437969     0.40150
H524        H  0.42096368  0.26188464  0.86823051     0.35040
C525        C  0.15870964  0.35038338  0.74206096    -0.26690
C526        C  0.13470416  0.32560571  0.76576299    -0.14770
C527        C  0.15496672  0.32196472  0.79178727     0.35860
C528        C  0.19783607  0.34161193  0.79279815    -0.26140
C529        C  0.22178012  0.36588832  0.76894540    -0.15380
C530        C  0.20168791  0.37008862  0.74329633     0.36950
N531        N  0.22471746  0.39241353  0.71756956    -0.89630
H532        H  0.14398836  0.35344634  0.72194119     0.18060
H533        H  0.21262558  0.33784670  0.81256725     0.18050
N534        N  0.13326632  0.29893501  0.81782792    -0.88660
H535        H  0.21541077  0.37358639  0.69886689     0.35430
H536        H  0.21738011  0.41359411  0.71278485     0.40530
H537        H  0.10203223  0.28655539  0.81528173     0.40150
H538        H  0.14221551  0.31784660  0.83645796     0.35040
C539        C  0.15153610  0.01391584  0.77234910    -0.26690
C540        C  0.17207055  0.02221356  0.80070236    -0.14770
C541        C  0.18478631  0.99699159  0.81113067     0.35860
C542        C  0.18761279  0.97273618  0.78990600    -0.26140
C543        C  0.18407338  0.97919115  0.75881462    -0.15380
C544        C  0.15896665  0.99339067  0.75046409     0.36950
N545        N  0.14694531  0.99233491  0.71919330    -0.89630
H546        H  0.13652668  0.02919830  0.76534817     0.18060
H547        H  0.20299248  0.95770244  0.79682475     0.18050
N548        N  0.19890519  0.99862804  0.84176893    -0.88660
H549        H  0.12934948  0.00507650  0.71682923     0.35430
H550        H  0.17311547  0.00953147  0.70644977     0.40530
H551        H  0.19491238  0.51814380  0.85465722     0.40150
H552        H  0.18046089  0.47095647  0.85144731     0.35040
C553        C  0.13381933  0.13586837  0.80106330    -0.26690
C554        C  0.15811924  0.12694662  0.78385634    -0.14770
C555        C  0.15218644  0.12250734  0.75198606     0.35860
C556        C  0.12552242  0.13137851  0.73784908    -0.26140
C557        C  0.11019044  0.15035107  0.75433023    -0.15380
C558        C  0.10967935  0.14799004  0.78630176     0.36950
N559        N  0.08998816  0.16363217  0.80334769    -0.89630
H560        H  0.13639801  0.13662886  0.82565914     0.18060
H561        H  0.12464613  0.13201918  0.71319068     0.18050
N562        N  0.17537342  0.11255200  0.73313200    -0.88660
H563        H  0.09403814  0.16136403  0.82668981     0.35430
H564        H  0.05880280  0.14608491  0.79880346     0.40530
H565        H  0.20606605  0.13442552  0.73512988     0.40150
H566        H  0.17179538  0.08617321  0.74060662     0.35040
C567        C  0.30939023  0.15868246  0.75972615    -0.26690
C568        C  0.29832218  0.15185088  0.79057592    -0.14770
C569        C  0.32960337  0.16970941  0.81297082     0.35860
C570        C  0.37052422  0.19108049  0.80414007    -0.26140
C571        C  0.38166800  0.19729047  0.77349402    -0.15380
C572        C  0.35065308  0.18165986  0.75097671     0.36950
N573        N  0.36101931  0.18953086  0.71943834    -0.89630
H574        H  0.28566162  0.14612982  0.74239884     0.18060
H575        H  0.39403039  0.20335706  0.82157803     0.18050
N576        N  0.32126145  0.16851155  0.84477017    -0.88660
H577        H  0.33473971  0.17652284  0.70578955     0.35430
H578        H  0.37697342  0.17605654  0.71387190     0.40530
H579        H  0.29021018  0.15148548  0.84906876     0.40150
H580        H  0.33530920  0.15557232  0.85601622     0.35040
C581        C  0.26731262  0.04749232  0.62961301    -0.26690
C582        C  0.27959455  0.02334901  0.64326851    -0.14770
C583        C  0.27763089  0.99288022  0.62580706     0.35860
C584        C  0.26397976  0.98775375  0.59534178    -0.26140
C585        C  0.25328453  0.01291742  0.58156366    -0.15380
C586        C  0.25356153  0.04232368  0.59936265     0.36950
N587        N  0.23976840  0.06720790  0.58774868    -0.89630
H588        H  0.26740603  0.07028769  0.64272903     0.18060
H589        H  0.26394184  0.96534416  0.58175918     0.18050
N590        N  0.29079520  0.96810747  0.63854167    -0.88660
H591        H  0.21667375  0.56379535  0.60194053     0.35430
H592        H  0.22580534  0.55788290  0.56642919     0.40530
H593        H  0.32214838  0.98573793  0.64223312     0.40150
H594        H  0.28640813  0.94665362  0.62294592     0.35040
C595        C  0.26609740  0.48935372  0.87886068    -0.26690
C596        C  0.27321369  0.02223292  0.89545352    -0.14770
C597        C  0.29301526  0.05917184  0.88078165     0.35520
C598        C  0.30349366  0.06229555  0.85005244    -0.26140
C599        C  0.29510337  0.02934081  0.83309829    -0.15380
C600        C  0.27687521  0.99251652  0.84804386     0.36950
N601        N  0.26803050  0.45792025  0.83197138    -0.89630
H602        H  0.25182318  0.46085532  0.88973051     0.18060
H603        H  0.31785320  0.09083127  0.83928218     0.18050
N604        N  0.30227549  0.09380039  0.89691807    -0.88660
H605        H  0.23686254  0.43746278  0.83342341     0.35430
H606        H  0.28341686  0.44606538  0.84295231     0.40530
H607        H  0.28650196  0.10551964  0.88643845     0.40150
H608        H  0.33352764  0.11399530  0.89564632     0.35040
C609        C  0.18115652  0.24799836  0.58764202    -0.26690
C610        C  0.21242629  0.24324221  0.57675671    -0.14770
C611        C  0.22850065  0.22629738  0.59630182     0.35860
C612        C  0.21429400  0.21634877  0.62630912    -0.26140
C613        C  0.18384705  0.22223618  0.63745265    -0.15380
C614        C  0.16659364  0.23762016  0.61742503     0.36950
N615        N  0.13447597  0.24295719  0.62715429    -0.89630
H616        H  0.16751357  0.25979717  0.57273451     0.18060
H617        H  0.22804151  0.20473917  0.64129680     0.18050
N618        N  0.25969438  0.21989527  0.58606720    -0.88660
H619        H  0.12011653  0.24711194  0.60839372     0.35430
H620        H  0.14796801  0.26911210  0.63948054     0.40530
H621        H  0.24619484  0.19679138  0.57049234     0.40150
H622        H  0.27050489  0.21033534  0.60401317     0.35040
C623        C  0.24407554  0.24901944  0.87151814    -0.26690
C624        C  0.21828130  0.25419848  0.89023250    -0.14770
C625        C  0.18343452  0.25198066  0.87678125     0.35860
C626        C  0.17705926  0.24756894  0.84502678    -0.26140
C627        C  0.20333735  0.24328650  0.82624551    -0.15380
C628        C  0.23673335  0.24314594  0.83997071     0.36950
N629        N  0.26362051  0.23717912  0.82212762    -0.89630
H630        H  0.27019010  0.24941936  0.88139010     0.18060
H631        H  0.15027061  0.24560957  0.83502297     0.18050
N632        N  0.15349570  0.25241240  0.89539733    -0.88660
H633        H  0.26270977  0.21221768  0.83050786     0.35430
H634        H  0.29307021  0.26085121  0.82600238     0.40530
H635        H  0.14082402  0.22738546  0.90916066     0.40150
H636        H  0.12968048  0.24957168  0.88176766     0.35040
C637        C  0.11459633  0.12673048  0.46297019    -0.26690
C638        C  0.12736878  0.15288349  0.98733158    -0.14770
C639        C  0.11188523  0.13951460  0.01665476     0.35860
C640        C  0.08306479  0.10022798  0.02100856    -0.26140
C641        C  0.06910368  0.07427545  0.99646245    -0.15380
C642        C  0.08493135  0.08737570  0.46726636     0.36950
N643        N  0.06956117  0.06115253  0.44186974    -0.89630
H644        H  0.12764399  0.13691827  0.44067002     0.18060
H645        H  0.07004441  0.09012099  0.04332510     0.18050
N646        N  0.12576983  0.16498671  0.04246602    -0.88660
H647        H  0.09396092  0.06110377  0.43200926     0.35430
H648        H  0.05778228  0.07219600  0.42583333     0.40530
H649        H  0.12122869  0.18811246  0.03799487     0.40150
H650        H  0.15683519  0.17620642  0.04532115     0.35040
C651        C  0.35994794  0.36923856  0.01818913    -0.26690
C652        C  0.33798141  0.36280814  0.99092451    -0.14770
C653        C  0.35556339  0.38871957  0.46638998     0.35860
C654        C  0.39526735  0.42090672  0.46960174    -0.26140
C655        C  0.41734522  0.42778815  0.99696977    -0.15380
C656        C  0.39923126  0.40190109  0.02179273     0.36950
N657        N  0.41892031  0.40834558  0.05106057    -0.89630
H658        H  0.34621494  0.34886107  0.03695281     0.18060
H659        H  0.40916632  0.44091204  0.45069978     0.18050
N660        N  0.33325402  0.38189003  0.43828768    -0.88660
H661        H  0.42443512  0.38571061  0.05484168     0.35430
H662        H  0.44698070  0.43460843  0.05186934     0.40530
H663        H  0.32838112  0.35580639  0.42901775     0.40150
H664        H  0.35053875  0.40405595  0.42257806     0.35040
C665        C  0.48859317  0.12307495  0.53376318    -0.26690
C666        C  0.49913090  0.14809406  0.50843544    -0.14770
C667        C  0.00811726  0.13634140  0.98098839     0.35860
C668        C  0.00619605  0.10007562  0.97942863    -0.26140
C669        C  0.49610487  0.07507187  0.50485239    -0.15380
C670        C  0.48777312  0.08737474  0.53258317     0.36950
N671        N  0.47891469  0.06483645  0.56014008    -0.89630
H672        H  0.48163903  0.13171606  0.55496279     0.18060
H673        H  0.01268175  0.09121390  0.95816667     0.18050
N674        N  0.01894932  0.16122370  0.95466253    -0.88660
H675        H  0.50181223  0.08199504  0.57600946     0.35430
H676        H  0.48013273  0.03969338  0.55706118     0.40530
H677        H  0.99369491  0.16287741  0.94825725     0.40150
H678        H  0.02509777  0.14875792  0.93635832     0.35040
C679        C  0.01100777  0.41938906  0.52845522    -0.26690
C680        C  0.49419136  0.42633750  0.50221400    -0.14770
C681        C  0.47967014  0.39801978  0.97853022     0.35860
C682        C  0.48028143  0.36326968  0.98251642    -0.26140
C683        C  0.49739094  0.35663617  0.50865964    -0.15380
C684        C  0.01353824  0.38550003  0.53163974     0.36950
N685        N  0.03160700  0.37992682  0.55851172    -0.89630
H686        H  0.02266629  0.44089835  0.54654670     0.18060
H687        H  0.46869702  0.34184027  0.96434664     0.18050
N688        N  0.46633066  0.40428716  0.94950073    -0.88660
H689        H  0.04069822  0.40304640  0.57373546     0.35430
H690        H  0.05812524  0.38114661  0.55197060     0.40530
H691        H  0.47019000  0.43203655  0.94791843     0.40150
H692        H  0.43531461  0.38348724  0.94707398     0.35040
C693        C  0.07834830  0.49097988  0.96908320    -0.26690
C694        C  0.07020036  0.00242550  0.49676781    -0.14770
C695        C  0.10014477  0.01770062  0.52015760     0.35860
C696        C  0.13808795  0.02279340  0.51467231    -0.26140
C697        C  0.14638236  0.01178996  0.48691101    -0.15380
C698        C  0.11604821  0.49522721  0.96387547     0.36950
N699        N  0.12272739  0.48364965  0.93477968    -0.89630
H700        H  0.05544574  0.47942552  0.95111692     0.18060
H701        H  0.16085329  0.03406645  0.53274680     0.18050
N702        N  0.09272780  0.02683792  0.54997373    -0.88660
H703        H  0.10365253  0.45321605  0.93310685     0.35430
H704        H  0.15250657  0.49017987  0.93264788     0.40530
H705        H  0.06297191  0.02034743  0.55214094     0.40150
H706        H  0.11210282  0.05696606  0.55337897     0.35040
C707        C  0.39788144  0.99357297  0.52306614    -0.26690
C708        C  0.42150854  0.00157029  0.49720053    -0.14770
C709        C  0.41199176  0.51440118  0.96993492     0.35860
C710        C  0.37955608  0.52026599  0.96969132    -0.26140
C711        C  0.35621547  0.01246504  0.49561580    -0.15380
C712        C  0.36505628  0.99873476  0.52245033     0.36950
N713        N  0.34142834  0.99030867  0.54932779    -0.89630
H714        H  0.40548670  0.98395075  0.54389432     0.18060
H715        H  0.37177402  0.52984559  0.94890861     0.18050
N716        N  0.43450748  0.52186284  0.94236529    -0.88660
H717        H  0.31153048  0.96820651  0.54424945     0.35430
H718        H  0.34159981  0.01555054  0.55544756     0.40530
H719        H  0.45737232  0.51550740  0.94478482     0.40150
H720        H  0.41441419  0.50268628  0.92575342     0.35040
C721        C  0.49548020  0.53672780  0.00211019     0.01910
C722        C  0.45872693  0.00062806  0.00018611     0.01910
C723        C  0.45748424  0.96453236  0.99953475     0.01910
C724        C  0.99406848  0.96416851  0.00016037     0.01910
C725        C  0.03123374  0.50079784  0.99960497     0.01910
C726        C  0.03151493  0.53640055  0.00015225     0.01910
O727        O  0.24332351  0.73993256  0.03007807    -0.73320
O728        O  0.24687400  0.74661675  0.43741849    -0.74300
O729        O  0.29861452  0.79461984  0.48687735    -0.62920
O730        O  0.19658650  0.69333585  0.48151810    -0.71330
O731        O  0.16063577  0.72210316  0.48440656    -0.70880
O732        O  0.26571791  0.82647775  0.48552380    -0.62140
O733        O  0.21087594  0.77505812  0.43913645    -0.74650
O734        O  0.21160545  0.77261399  0.02965112    -0.73430
Cu735      Cu  0.24799520  0.74301621  0.48383211     1.04560
Cu736      Cu  0.21137314  0.77551593  0.48453837     1.04330
C737        C  0.22413931  0.75311971  0.04416697     0.92880
C738        C  0.22628950  0.75929870  0.42378294     0.92020
C739        C  0.29875801  0.82639502  0.48747392     0.84160
C740        C  0.16290960  0.69142633  0.48356905     0.90430
O741        O  0.23173124  0.98037387  0.03310803    -0.73320
O742        O  0.24220143  0.98457393  0.44110312    -0.74300
O743        O  0.28600132  0.98159397  0.99138304    -0.62920
O744        O  0.18411762  0.98125876  0.98304832    -0.71330
O745        O  0.21841409  0.54624082  0.98678064    -0.70880
O746        O  0.32206757  0.54686319  0.99195856    -0.62140
O747        O  0.27504024  0.54920792  0.44411172    -0.74650
O748        O  0.26793248  0.54541550  0.03406034    -0.73430
Cu749      Cu  0.23445725  0.97961167  0.98698757     1.04560
Cu750      Cu  0.27181303  0.54917579  0.98914697     1.04330
C751        C  0.24983396  0.51264882  0.04800163     0.92880
C752        C  0.26241429  0.51829638  0.42832708     0.92020
C753        C  0.31978650  0.51392895  0.99301931     0.84160
C754        C  0.18487747  0.51335536  0.98475578     0.90430
C755        C  0.18675335  0.61867055  0.29909347     0.02750
C756        C  0.22878134  0.64242654  0.29389155    -0.13400
C757        C  0.25419802  0.62752135  0.29862069     0.00250
C758        C  0.23595457  0.58760285  0.30667139    -0.11920
C759        C  0.19335315  0.56366320  0.31059492     0.02740
C760        C  0.17029950  0.58103627  0.31065988    -0.11340
H761        H  0.24106858  0.67125440  0.28392326     0.08340
H762        H  0.25389232  0.57420687  0.30631173     0.05870
H763        H  0.13752113  0.56245462  0.31256131     0.05720
O764        O  0.50845070  0.79227913  0.30672024    -0.73320
O765        O  0.50480347  0.78562898  0.21596983    -0.74300
O766        O  0.44484243  0.75731608  0.26297974    -0.62920
O767        O  0.06956343  0.82077763  0.26077830    -0.71330
O768        O  0.06941999  0.76540896  0.26319370    -0.70880
O769        O  0.44571076  0.70246802  0.26636154    -0.62140
O770        O  0.50417952  0.72991601  0.21863652    -0.74650
O771        O  0.51023078  0.73774629  0.30933193    -0.73430
Cu772      Cu  0.50700712  0.79099265  0.26129646     1.04560
Cu773      Cu  0.50748412  0.73205126  0.26425635     1.04330
C774        C  0.50915690  0.76555727  0.32224320     0.92880
C775        C  0.50304651  0.75639327  0.20300773     0.92020
C776        C  0.42595379  0.72001303  0.26637021     0.84160
C777        C  0.08909644  0.80295731  0.26270979     0.90430
C778        C  0.33621184  0.94167331  0.26400074     0.02750
C779        C  0.35210089  0.91755840  0.26300272    -0.13400
C780        C  0.32611844  0.87700732  0.26412044     0.00250
C781        C  0.28442058  0.86091908  0.27089237    -0.11920
C782        C  0.26733046  0.88438761  0.27014178     0.02740
C783        C  0.29376524  0.92492869  0.26657297    -0.11340
H784        H  0.38368897  0.92998604  0.25709134     0.08340
H785        H  0.26404892  0.82952032  0.27226901     0.05870
H786        H  0.28072225  0.94283016  0.26439074     0.05720
O787        O  0.17601216  0.75308393  0.27906342    -0.73320
O788        O  0.15715825  0.73379755  0.18284875    -0.74300
O789        O  0.09846546  0.70144489  0.23981354    -0.62920
O790        O  0.21342102  0.80348605  0.22060732    -0.71330
O791        O  0.19987696  0.74770457  0.22910373    -0.70880
O792        O  0.15628964  0.71148458  0.23351929    -0.62140
O793        O  0.19122415  0.70083370  0.18696100    -0.74650
O794        O  0.20474125  0.71526845  0.27878931    -0.73430
Cu795      Cu  0.15989478  0.74858279  0.23055278     1.04560
Cu796      Cu  0.19959262  0.70279650  0.23324600     1.04330
C797        C  0.19427732  0.73705973  0.29286656     0.92880
C798        C  0.17548892  0.71741669  0.17076634     0.92020
C799        C  0.12089520  0.68816271  0.24154286     0.84160
C800        C  0.22661114  0.78128782  0.22209892     0.90430
O801        O  0.29770495  0.56084030  0.18916939    -0.73320
O802        O  0.30695007  0.56480530  0.28609199    -0.74300
O803        O  0.36961392  0.61088504  0.23478730    -0.62920
O804        O  0.24381630  0.53438723  0.24070028    -0.71330
O805        O  0.23990264  0.47743529  0.24140250    -0.70880
O806        O  0.31770991  0.05311044  0.23681686    -0.62140
O807        O  0.30018313  0.50532122  0.28440595    -0.74650
O808        O  0.29205171  0.50160278  0.19142606    -0.73430
Cu809      Cu  0.30528157  0.56877507  0.23738249     1.04560
Cu810      Cu  0.29864616  0.49934709  0.23777639     1.04330
C811        C  0.29101529  0.52903721  0.17620743     0.92880
C812        C  0.30165043  0.53355236  0.29956515     0.92020
C813        C  0.35554626  0.57517229  0.23709635     0.84160
C814        C  0.22350312  0.49731563  0.24418310     0.90430
O815        O  0.46494114  0.78631443  0.01017804    -0.73320
O816        O  0.46580037  0.68471792  0.01111120    -0.74300
O817        O  0.46506210  0.73514731  0.05698438    -0.62920
O818        O  0.46696998  0.73698990  0.46540145    -0.71330
O819        O  0.03429596  0.77249997  0.46797759    -0.70880
O820        O  0.03245739  0.76866764  0.05785589    -0.62140
O821        O  0.03313828  0.71887767  0.01138734    -0.74650
O822        O  0.03218219  0.82103990  0.01341314    -0.73430
Cu823      Cu  0.46329743  0.73450115  0.01098890     1.04560
Cu824      Cu  0.03526988  0.77134538  0.01281563     1.04330
C825        C  0.49827984  0.81963710  0.01117687     0.92880
C826        C  0.49945564  0.68569905  0.01058896     0.92020
C827        C  0.49881179  0.75222893  0.07183057     0.84160
C828        C  0.50142194  0.75568425  0.45236191     0.90430
C829        C  0.33124330  0.85681600  0.21474299    -0.26690
C830        C  0.33724900  0.85315775  0.24595598    -0.14770
C831        C  0.32260243  0.81488069  0.25649334     0.35860
C832        C  0.28748410  0.78437085  0.24255353    -0.26140
C833        C  0.26940049  0.79394066  0.21871403    -0.15380
C834        C  0.29416295  0.82802794  0.20176405     0.36950
N835        N  0.27899728  0.83577248  0.17434925    -0.89630
H836        H  0.34721377  0.88543249  0.20407279     0.18060
H837        H  0.27110810  0.75628559  0.25383004     0.18050
N838        N  0.33793770  0.80804907  0.28413157    -0.88660
H839        H  0.29960543  0.84129434  0.15708636     0.35430
H840        H  0.27827708  0.86123422  0.17756407     0.40530
H841        H  0.33603488  0.82483368  0.30131950     0.40150
H842        H  0.36868720  0.81824350  0.28106586     0.35040
C843        C  0.37734779  0.01195975  0.27852017    -0.26690
C844        C  0.36254995  0.98326543  0.25582156    -0.14770
C845        C  0.36737825  0.99463271  0.22502471     0.35860
C846        C  0.37756011  0.03289201  0.21774086    -0.26140
C847        C  0.38101408  0.55818991  0.24092728    -0.15380
C848        C  0.38772070  0.05030239  0.27100467     0.36950
N849        N  0.39759949  0.07888374  0.29434788    -0.89630
H850        H  0.37595729  0.00347687  0.30215969     0.18060
H851        H  0.37506297  0.54015922  0.19432437     0.18050
N852        N  0.35740679  0.96621092  0.20152893    -0.88660
H853        H  0.39944381  0.06782479  0.31556239     0.35430
H854        H  0.42660201  0.60285029  0.28983843     0.40530
H855        H  0.37829549  0.95718086  0.20339120     0.40150
H856        H  0.36192594  0.97933383  0.18013957     0.35040
C857        C  0.03059031  0.78612853  0.15330608    -0.26690
C858        C  0.50062483  0.75396502  0.16959177    -0.14770
C859        C  0.46926842  0.72113343  0.15358756     0.35860
C860        C  0.46892904  0.72156708  0.12169725    -0.26140
C861        C  0.49939898  0.75349448  0.10541812    -0.15380
C862        C  0.03053894  0.78622837  0.12143250     0.36950
N863        N  0.06168044  0.81971910  0.10532123    -0.89630
H864        H  0.05440413  0.81125968  0.16560542     0.18060
H865        H  0.44487850  0.69645558  0.10954783     0.18050
N866        N  0.43662603  0.68756743  0.16860228    -0.88660
H867        H  0.08248531  0.84100897  0.12049609     0.35430
H868        H  0.04761623  0.83230338  0.09350680     0.40530
H869        H  0.43863436  0.69067206  0.19215525     0.40150
H870        H  0.43907070  0.66340789  0.16369288     0.35040
C871        C  0.03896762  0.76554036  0.37202684    -0.26690
C872        C  0.50811276  0.76608890  0.35543712    -0.14770
C873        C  0.47520607  0.76399223  0.37060641     0.35860
C874        C  0.47282874  0.75926147  0.40231610    -0.26140
C875        C  0.50373866  0.75857459  0.41900147    -0.15380
C876        C  0.03765675  0.76274811  0.40375053     0.36950
N877        N  0.07054212  0.76392539  0.42048882    -0.89630
H878        H  0.06408491  0.76707810  0.36020097     0.18060
H879        H  0.44730618  0.75704483  0.41410418     0.18050
N880        N  0.44383272  0.76545668  0.35372667    -0.88660
H881        H  0.09469509  0.77105230  0.40618033     0.35430
H882        H  0.06006672  0.73580728  0.42902083     0.40530
H883        H  0.45671122  0.79353460  0.34438119     0.40150
H884        H  0.42096388  0.76187777  0.36823267     0.35040
C885        C  0.15871608  0.85038189  0.24205926    -0.26690
C886        C  0.13471040  0.82560798  0.26576281    -0.14770
C887        C  0.15497259  0.82196898  0.29178815     0.35860
C888        C  0.19784179  0.84161382  0.29279856    -0.26140
C889        C  0.22178601  0.86588647  0.26894437    -0.15380
C890        C  0.20169424  0.87008542  0.24329439     0.36950
N891        N  0.22472416  0.89240797  0.21756695    -0.89630
H892        H  0.14399503  0.85344360  0.22193882     0.18060
H893        H  0.21263105  0.83785026  0.31256862     0.18050
N894        N  0.13327183  0.79894416  0.31783046    -0.88660
H895        H  0.21541639  0.87357959  0.19886501     0.35430
H896        H  0.21738839  0.91358941  0.21278107     0.40530
H897        H  0.10203793  0.78656565  0.31528407     0.40150
H898        H  0.14222240  0.81785883  0.33645860     0.35040
C899        C  0.15153562  0.51391743  0.27236302    -0.26690
C900        C  0.17207961  0.52222575  0.30071293    -0.14770
C901        C  0.18479915  0.49700777  0.31114407     0.35860
C902        C  0.18761737  0.47274353  0.28992321    -0.26140
C903        C  0.18406627  0.47918581  0.25883103    -0.15380
C904        C  0.15895584  0.49338128  0.25048128     0.36950
N905        N  0.14692148  0.49231144  0.21921225    -0.89630
H906        H  0.13652438  0.52919759  0.26536053     0.18060
H907        H  0.20299922  0.45771218  0.29684260     0.18050
N908        N  0.19892768  0.49865504  0.34178076    -0.88660
H909        H  0.12932476  0.50505208  0.21684795     0.35430
H910        H  0.17308625  0.50950213  0.20646179     0.40530
H911        H  0.19491236  0.01814056  0.35465293     0.40150
H912        H  0.18046297  0.97095347  0.35144600     0.35040
C913        C  0.13382143  0.63587739  0.30105573    -0.26690
C914        C  0.15811682  0.62695049  0.28384810    -0.14770
C915        C  0.15217899  0.62250655  0.25197844     0.35860
C916        C  0.12551694  0.63138090  0.23784208    -0.26140
C917        C  0.11019120  0.65035927  0.25432308    -0.15380
C918        C  0.10968247  0.64800058  0.28629468     0.36950
N919        N  0.08999627  0.66364772  0.30334076    -0.89630
H920        H  0.13640372  0.63664146  0.32565141     0.18060
H921        H  0.12463798  0.63201896  0.21318368     0.18050
N922        N  0.17535862  0.61254243  0.23312419    -0.88660
H923        H  0.09404798  0.66138116  0.32668284     0.35430
H924        H  0.05881026  0.64610261  0.29879829     0.40530
H925        H  0.20605298  0.63441197  0.23511968     0.40150
H926        H  0.17177531  0.58616215  0.24060070     0.35040
C927        C  0.30939656  0.65871075  0.25972524    -0.26690
C928        C  0.29832676  0.65186559  0.29057436    -0.14770
C929        C  0.32960745  0.66971070  0.31297088     0.35860
C930        C  0.37052885  0.69108072  0.30414152    -0.26140
C931        C  0.38167409  0.69730279  0.27349595    -0.15380
C932        C  0.35066029  0.68168633  0.25097773     0.36950
N933        N  0.36102892  0.68956707  0.21944040    -0.89630
H934        H  0.28566881  0.64616839  0.24239691     0.18060
H935        H  0.39403437  0.70334719  0.32158036     0.18050
N936        N  0.32126488  0.66850211  0.34477095    -0.88660
H937        H  0.33475001  0.67657068  0.20579094     0.35430
H938        H  0.37697458  0.67608591  0.21386859     0.40530
H939        H  0.29021345  0.65147537  0.34906883     0.40150
H940        H  0.33531189  0.65555868  0.35601152     0.35040
C941        C  0.26728698  0.54748310  0.12961242    -0.26690
C942        C  0.27956963  0.52334056  0.14326828    -0.14770
C943        C  0.27760865  0.49287305  0.12580673     0.35860
C944        C  0.26395974  0.48774723  0.09534101    -0.26140
C945        C  0.25326463  0.51291060  0.08156240    -0.15380
C946        C  0.25353877  0.54231550  0.09936131     0.36950
N947        N  0.23974611  0.56719966  0.08774635    -0.89630
H948        H  0.26737862  0.57027755  0.14272845     0.18060
H949        H  0.26392430  0.46533893  0.08175835     0.18050
N950        N  0.29077446  0.46810157  0.13854148    -0.88660
H951        H  0.21666920  0.06378685  0.10194355     0.35430
H952        H  0.22579811  0.05787385  0.06643166     0.40530
H953        H  0.32212750  0.48573328  0.14223292     0.40150
H954        H  0.28638873  0.44664818  0.12294575     0.35040
C955        C  0.26610040  0.98935285  0.37886138    -0.26690
C956        C  0.27322973  0.52223454  0.39545485    -0.14770
C957        C  0.29303485  0.55917378  0.38078346     0.35520
C958        C  0.30350814  0.56229630  0.35005316    -0.26140
C959        C  0.29511138  0.52934042  0.33309797    -0.15380
C960        C  0.27688378  0.49251624  0.34804377     0.36950
N961        N  0.26803370  0.95791801  0.33197286    -0.89630
H962        H  0.25182762  0.96085504  0.38973206     0.18060
H963        H  0.31786907  0.59083191  0.33928278     0.18050
N964        N  0.30230359  0.59380380  0.39692155    -0.88660
H965        H  0.23686597  0.93745985  0.33342541     0.35430
H966        H  0.28342109  0.94606442  0.34295414     0.40530
H967        H  0.28652936  0.60552527  0.38644674     0.40150
H968        H  0.33355592  0.61399632  0.39564580     0.35040
C969        C  0.18114883  0.74798968  0.08763309    -0.26690
C970        C  0.21242070  0.74323732  0.07674686    -0.14770
C971        C  0.22850078  0.72629777  0.09629196     0.35860
C972        C  0.21429763  0.71635082  0.12630022    -0.26140
C973        C  0.18384834  0.72223426  0.13744431    -0.15380
C974        C  0.16658871  0.73761178  0.11741671     0.36950
N975        N  0.13446770  0.74294297  0.12714700    -0.89630
H976        H  0.16750152  0.75978441  0.07272582     0.18060
H977        H  0.22804988  0.70474626  0.14128824     0.18050
N978        N  0.25969723  0.71990012  0.08605649    -0.88660
H979        H  0.12009439  0.74707777  0.10838580     0.35430
H980        H  0.14795848  0.76910635  0.13946212     0.40530
H981        H  0.24619899  0.69679475  0.07048289     0.40150
H982        H  0.27051178  0.71034416  0.10400244     0.35040
C983        C  0.24408156  0.74901649  0.37151087    -0.26690
C984        C  0.21829431  0.75420818  0.39022343    -0.14770
C985        C  0.18345469  0.75200293  0.37677004     0.35860
C986        C  0.17707892  0.74758785  0.34501582    -0.26140
C987        C  0.20334996  0.74329249  0.32623640    -0.15380
C988        C  0.23673923  0.74314137  0.33996353     0.36950
N989        N  0.26361895  0.73716126  0.32212279    -0.89630
H990        H  0.27019060  0.74940727  0.38138423     0.18060
H991        H  0.15029471  0.74563614  0.33501076     0.18050
N992        N  0.15352345  0.75245198  0.39538352    -0.88660
H993        H  0.26269879  0.71219658  0.33050606     0.35430
H994        H  0.29307215  0.76082770  0.32599667     0.40530
H995        H  0.14083927  0.72742484  0.40914708     0.40150
H996        H  0.12971537  0.74962431  0.38175209     0.35040
C997        C  0.11458154  0.62672182  0.96296372    -0.26690
C998        C  0.12737841  0.65289219  0.48732388    -0.14770
C999        C  0.11189714  0.63952438  0.51664778     0.35860
C1000       C  0.08307757  0.60023787  0.52100307    -0.26140
C1001       C  0.06911476  0.57428410  0.49645777    -0.15380
C1002       C  0.08491662  0.58736730  0.96726160     0.36950
N1003       N  0.06954367  0.56114280  0.94186585    -0.89630
H1004       H  0.12762702  0.63690837  0.94066280     0.18060
H1005       H  0.07005915  0.59013187  0.54332027     0.18050
N1006       N  0.12578362  0.66499741  0.54245845    -0.88660
H1007       H  0.09394226  0.56109327  0.93200399     0.35430
H1008       H  0.05776337  0.57218562  0.92583008     0.40530
H1009       H  0.12124264  0.68812328  0.53798734     0.40150
H1010       H  0.15684899  0.67621657  0.54531238     0.35040
C1011       C  0.35995682  0.86924565  0.51818378    -0.26690
C1012       C  0.33799250  0.86281594  0.49091812    -0.14770
C1013       C  0.35555380  0.88871332  0.96638167     0.35860
C1014       C  0.39525782  0.92089995  0.96959559    -0.26140
C1015       C  0.41735637  0.92779522  0.49696645    -0.15380
C1016       C  0.39924011  0.90190778  0.52178888     0.36950
N1017       N  0.41892671  0.90835160  0.55105768    -0.89630
H1018       H  0.34622208  0.84886794  0.53694711     0.18060
H1019       H  0.40915906  0.94090587  0.95069429     0.18050
N1020       N  0.33324750  0.88188502  0.93827800    -0.88660
H1021       H  0.42444087  0.88571633  0.55483958     0.35430
H1022       H  0.44698722  0.93461426  0.55186750     0.40530
H1023       H  0.32837495  0.85580139  0.92900830     0.40150
H1024       H  0.35053429  0.90405123  0.92256914     0.35040
C1025       C  0.48858695  0.62306952  0.03376674    -0.26690
C1026       C  0.49912227  0.64808787  0.00843871    -0.14770
C1027       C  0.00812584  0.63634871  0.48098972     0.35860
C1028       C  0.00620555  0.60008340  0.47942943    -0.26140
C1029       C  0.49609389  0.57506481  0.00485416    -0.15380
C1030       C  0.48776551  0.58736869  0.03258588     0.36950
N1031       N  0.47890911  0.56483077  0.06014282    -0.89630
H1032       H  0.48163549  0.63171153  0.05496709     0.18060
H1033       H  0.01269054  0.59122188  0.45816708     0.18050
N1034       N  0.01895644  0.66123102  0.45466394    -0.88660
H1035       H  0.50180855  0.58198904  0.07601106     0.35430
H1036       H  0.48012543  0.53968690  0.05706311     0.40530
H1037       H  0.99370148  0.66288417  0.44825945     0.40150
H1038       H  0.02510458  0.64876557  0.43635933     0.35040
C1039       C  0.01099385  0.91938023  0.02845707    -0.26690
C1040       C  0.49417882  0.92632876  0.00221452    -0.14770
C1041       C  0.47968239  0.89802701  0.47853091     0.35860
C1042       C  0.48029278  0.86327658  0.48251781    -0.26140
C1043       C  0.49738141  0.85662913  0.00866057    -0.15380
C1044       C  0.01352575  0.88549202  0.03164172     0.36950
N1045       N  0.03159283  0.87991850  0.05851456    -0.89630
H1046       H  0.02265013  0.94088874  0.04654907     0.18060
H1047       H  0.46871003  0.84184767  0.46434770     0.18050
N1048       N  0.46634585  0.90429535  0.44950049    -0.88660
H1049       H  0.04068179  0.90303721  0.07373876     0.35430
H1050       H  0.05811227  0.88113982  0.05197467     0.40530
H1051       H  0.47020558  0.93204489  0.44791794     0.40150
H1052       H  0.43532995  0.88349570  0.44707215     0.35040
C1053       C  0.07835961  0.99098602  0.46908599    -0.26690
C1054       C  0.07018941  0.50241939  0.99676517    -0.14770
C1055       C  0.10013468  0.51769579  0.02015433     0.35860
C1056       C  0.13807826  0.52278997  0.01466824    -0.26140
C1057       C  0.14637238  0.51178654  0.98690683    -0.15380
C1058       C  0.11605904  0.99523206  0.46387900     0.36950
N1059       N  0.12273862  0.98365471  0.43478325    -0.89630
H1060       H  0.05545773  0.97943268  0.45111923     0.18060
H1061       H  0.16084411  0.53406388  0.03274234     0.18050
N1062       N  0.09271825  0.52683300  0.04997068    -0.88660
H1063       H  0.10366282  0.95322126  0.43310986     0.35430
H1064       H  0.15251747  0.99018378  0.43265200     0.40530
H1065       H  0.06296212  0.52034157  0.05213858     0.40150
H1066       H  0.11209262  0.55696127  0.05337568     0.35040
C1067       C  0.39787070  0.49356778  0.02306918    -0.26690
C1068       C  0.42149704  0.50156349  0.99720327    -0.14770
C1069       C  0.41200361  0.01440854  0.46993235     0.35860
C1070       C  0.37956717  0.02027216  0.46968865    -0.26140
C1071       C  0.35620515  0.51246054  0.99561869    -0.15380
C1072       C  0.36504604  0.49873058  0.02245340     0.36950
N1073       N  0.34141858  0.49030565  0.04933099    -0.89630
H1074       H  0.40547614  0.48394603  0.04389751     0.18060
H1075       H  0.37178522  0.02985220  0.44890613     0.18050
N1076       N  0.43452033  0.02187177  0.44236305    -0.88660
H1077       H  0.31152040  0.46820397  0.04425293     0.35430
H1078       H  0.34159087  0.51554805  0.05545043     0.40530
H1079       H  0.45738572  0.01551710  0.44478274     0.40150
H1080       H  0.41442786  0.00269545  0.42575072     0.35040
C1081       C  0.49549036  0.53673549  0.50211051     0.01910
C1082       C  0.45874027  0.00063542  0.50018544     0.01910
C1083       C  0.45749797  0.96453996  0.49953408     0.01910
C1084       C  0.99408171  0.96417602  0.50016126     0.01910
C1085       C  0.03124385  0.50080543  0.49960341     0.01910
C1086       C  0.03152576  0.53640853  0.50015061     0.01910
O1087       O  0.24333482  0.73994209  0.53007742    -0.73320
O1088       O  0.24686314  0.74660948  0.93741956    -0.74300
O1089       O  0.29860267  0.79461182  0.98687873    -0.62920
O1090       O  0.19657543  0.69332735  0.98151842    -0.71330
O1091       O  0.16062427  0.72209421  0.98440745    -0.70880
O1092       O  0.26570506  0.82646880  0.98552580    -0.62140
O1093       O  0.21086431  0.77505002  0.93913768    -0.74650
O1094       O  0.21161766  0.77262443  0.52964943    -0.73430
Cu1095     Cu  0.24798391  0.74300789  0.98383294     1.04560
Cu1096     Cu  0.21136104  0.77550680  0.98453986     1.04330
C1097       C  0.22415105  0.75313015  0.54416577     0.92880
C1098       C  0.22627873  0.75929149  0.92378401     0.92020
C1099       C  0.29874543  0.82638662  0.98747567     0.84160
C1100       C  0.16289843  0.69141762  0.98356964     0.90430
O1101       O  0.23174377  0.98037694  0.53311068    -0.73320
O1102       O  0.24219072  0.98457402  0.94110075    -0.74300
O1103       O  0.28601230  0.98159574  0.49138548    -0.62920
O1104       O  0.18412834  0.98126046  0.48305094    -0.71330
O1105       O  0.21842318  0.54624729  0.48677849    -0.70880
O1106       O  0.32207633  0.54686955  0.49195785    -0.62140
O1107       O  0.27503190  0.54920377  0.94411325    -0.74650
O1108       O  0.26794133  0.54542375  0.53405907    -0.73430
Cu1109     Cu  0.23446826  0.97961319  0.48699014     1.04560
Cu1110     Cu  0.27182188  0.54918213  0.48914549     1.04330
C1111       C  0.24984207  0.51265748  0.54800094     0.92880
C1112       C  0.26240669  0.51829298  0.92832784     0.92020
C1113       C  0.31979527  0.51393536  0.49301964     0.84160
C1114       C  0.18488652  0.51336182  0.48475416     0.90430
C1115       C  0.18674671  0.61867459  0.79908150     0.02750
C1116       C  0.22877461  0.64243141  0.79387910    -0.13400
C1117       C  0.25419339  0.62752932  0.79861298     0.00250
C1118       C  0.23595186  0.58761221  0.80666765    -0.11920
C1119       C  0.19335033  0.56367110  0.81059002     0.02740
C1120       C  0.17029464  0.58104213  0.81065108    -0.11340
H1121       H  0.24106074  0.67125800  0.78390871     0.08340
H1122       H  0.25389160  0.57421804  0.80631204     0.05870
H1123       H  0.13751640  0.56245952  0.81255282     0.05720
O1124       O  0.50844719  0.79227776  0.80672104    -0.73320
O1125       O  0.50480641  0.78563270  0.71597034    -0.74300
O1126       O  0.44484194  0.75731959  0.76297782    -0.62920
O1127       O  0.06956130  0.82076888  0.76078198    -0.71330
O1128       O  0.06941596  0.76539922  0.76319639    -0.70880
O1129       O  0.44570723  0.70247001  0.76636025    -0.62140
O1130       O  0.50417805  0.72991750  0.71863647    -0.74650
O1131       O  0.51022542  0.73774388  0.80933183    -0.73430
Cu1132     Cu  0.50700691  0.79099394  0.76129713     1.04560
Cu1133     Cu  0.50748064  0.73205084  0.76425632     1.04330
C1134       C  0.50915155  0.76555459  0.82224351     0.92880
C1135       C  0.50304826  0.75639661  0.70300793     0.92020
C1136       C  0.42595168  0.72001646  0.76636817     0.84160
C1137       C  0.08909335  0.80294768  0.76271397     0.90430
C1138       C  0.33620972  0.94166599  0.76402102     0.02750
C1139       C  0.35209973  0.91755178  0.76302653    -0.13400
C1140       C  0.32611760  0.87700065  0.76414081     0.00250
C1141       C  0.28441830  0.86091126  0.77090863    -0.11920
C1142       C  0.26732757  0.88437955  0.77015665     0.02740
C1143       C  0.29376257  0.92492111  0.76658903    -0.11340
H1144       H  0.38368904  0.92998032  0.75711842     0.08340
H1145       H  0.26404683  0.82951225  0.77228291     0.05870
H1146       H  0.28072013  0.94282318  0.76440408     0.05720
O1147       O  0.17601420  0.75308835  0.77906281    -0.73320
O1148       O  0.15716990  0.73381316  0.68284661    -0.74300
O1149       O  0.09847019  0.70145954  0.73980711    -0.62920
O1150       O  0.21343316  0.80349575  0.72061052    -0.71330
O1151       O  0.19988349  0.74771196  0.72910363    -0.70880
O1152       O  0.15629278  0.71149357  0.73351635    -0.62140
O1153       O  0.19122845  0.70084222  0.68695933    -0.74650
O1154       O  0.20473797  0.71526841  0.77878830    -0.73430
Cu1155     Cu  0.15990254  0.74859419  0.73055124     1.04560
Cu1156     Cu  0.19959232  0.70280036  0.73324450     1.04330
C1157       C  0.19427532  0.73706023  0.79286607     0.92880
C1158       C  0.17549793  0.71742948  0.67076456     0.92020
C1159       C  0.12089644  0.68817346  0.74153683     0.84160
C1160       C  0.22662061  0.78129538  0.72210204     0.90430
O1161       O  0.29770113  0.56084475  0.68917138    -0.73320
O1162       O  0.30694594  0.56480776  0.78609424    -0.74300
O1163       O  0.36960928  0.61089083  0.73478943    -0.62920
O1164       O  0.24381245  0.53438867  0.74070252    -0.71330
O1165       O  0.23990166  0.47743805  0.74140465    -0.70880
O1166       O  0.31772677  0.05311432  0.73681841    -0.62140
O1167       O  0.30018259  0.50532529  0.78440713    -0.74650
O1168       O  0.29205080  0.50160854  0.69142726    -0.73430
Cu1169     Cu  0.30527741  0.56877863  0.73738468     1.04560
Cu1170     Cu  0.29864567  0.49935235  0.73777750     1.04330
C1171       C  0.29101345  0.52904265  0.67620889     0.92880
C1172       C  0.30164787  0.53355505  0.79956682     0.92020
C1173       C  0.35554310  0.57517817  0.73709749     0.84160
C1174       C  0.22350078  0.49731711  0.74418561     0.90430
O1175       O  0.46495298  0.78632257  0.51017823    -0.73320
O1176       O  0.46581087  0.68472560  0.51111095    -0.74300
O1177       O  0.46507251  0.73515471  0.55698410    -0.62920
O1178       O  0.46695881  0.73698165  0.96540128    -0.71330
O1179       O  0.03428214  0.77249011  0.96797773    -0.70880
O1180       O  0.03246913  0.76867386  0.55785620    -0.62140
O1181       O  0.03315105  0.71888601  0.51138644    -0.74650
O1182       O  0.03219549  0.82104801  0.51341431    -0.73430
Cu1183     Cu  0.46330845  0.73450904  0.51098885     1.04560
Cu1184     Cu  0.03528286  0.77135354  0.51281577     1.04330
C1185       C  0.49829198  0.81964495  0.51117722     0.92880
C1186       C  0.49946602  0.68570648  0.51058888     0.92020
C1187       C  0.49882185  0.75223578  0.57183070     0.84160
C1188       C  0.50141086  0.75567622  0.95236180     0.90430
C1189       C  0.33125536  0.85682095  0.71476196    -0.26690
C1190       C  0.33725237  0.85315494  0.74597522    -0.14770
C1191       C  0.32260239  0.81487516  0.75650707     0.35860
C1192       C  0.28748702  0.78436934  0.74256102    -0.26140
C1193       C  0.26940989  0.79394605  0.71872111    -0.15380
C1194       C  0.29417767  0.82803727  0.70177681     0.36950
N1195       N  0.27901938  0.83579001  0.67436184    -0.89630
H1196       H  0.34723003  0.88543963  0.70409576     0.18060
H1197       H  0.27110788  0.75628097  0.75383274     0.18050
N1198       N  0.33793222  0.80803602  0.78414482    -0.88660
H1199       H  0.29963155  0.84131574  0.65710119     0.35430
H1200       H  0.27829972  0.86125155  0.67757968     0.40530
H1201       H  0.33602754  0.82481722  0.80133473     0.40150
H1202       H  0.36868202  0.81823001  0.78108133     0.35040
C1203       C  0.37734639  0.01195315  0.77853812    -0.26690
C1204       C  0.36254887  0.98325736  0.75584069    -0.14770
C1205       C  0.36738164  0.99462254  0.72504321     0.35860
C1206       C  0.37757069  0.03288303  0.71775654    -0.26140
C1207       C  0.38101241  0.55819691  0.74092576    -0.15380
C1208       C  0.38772502  0.05029663  0.77101979     0.36950
N1209       N  0.39760315  0.07888008  0.79436110    -0.89630
H1210       H  0.37595190  0.00347141  0.80217831     0.18060
H1211       H  0.37506708  0.54017641  0.69432045     0.18050
N1212       N  0.35740799  0.96619817  0.70154918    -0.88660
H1213       H  0.39944203  0.06782127  0.81557715     0.35430
H1214       H  0.42659541  0.60284770  0.78984202     0.40530
H1215       H  0.37829661  0.95716811  0.70341204     0.40150
H1216       H  0.36192520  0.97931834  0.68015879     0.35040
C1217       C  0.03059768  0.78612674  0.65330777    -0.26690
C1218       C  0.50062876  0.75396974  0.66959194    -0.14770
C1219       C  0.46927122  0.72114022  0.65358670     0.35860
C1220       C  0.46893445  0.72157444  0.62169643    -0.26140
C1221       C  0.49940778  0.75350054  0.60541830    -0.15380
C1222       C  0.03054858  0.78622901  0.62143417     0.36950
N1223       N  0.06169211  0.81972040  0.60532473    -0.89630
H1224       H  0.05441140  0.81125640  0.66560850     0.18060
H1225       H  0.44488293  0.69646447  0.60954627     0.18050
N1226       N  0.43662513  0.68757599  0.66860031    -0.88660
H1227       H  0.08249662  0.84100855  0.62050078     0.35430
H1228       H  0.04762983  0.83230676  0.59351051     0.40530
H1229       H  0.43863153  0.69068048  0.69215331     0.40150
H1230       H  0.43906673  0.66341446  0.66369184     0.35040
C1231       C  0.03895626  0.76552776  0.87202817    -0.26690
C1232       C  0.50810544  0.76608436  0.85543733    -0.14770
C1233       C  0.47519678  0.76398462  0.87060586     0.35860
C1234       C  0.47281806  0.75925240  0.90231544    -0.26140
C1235       C  0.50372823  0.75856665  0.91900138    -0.15380
C1236       C  0.03764404  0.76273566  0.90375182     0.36950
N1237       N  0.07052912  0.76391379  0.92049120    -0.89630
H1238       H  0.06407439  0.76706609  0.86020316     0.18060
H1239       H  0.44729427  0.75703389  0.91410298     0.18050
N1240       N  0.44382304  0.76544762  0.85372545    -0.88660
H1241       H  0.09468270  0.77104077  0.90618343     0.35430
H1242       H  0.06005385  0.73579590  0.92902367     0.40530
H1243       H  0.45670050  0.79352571  0.84438048     0.40150
H1244       H  0.42095291  0.76186679  0.86823090     0.35040
C1245       C  0.15871538  0.85037592  0.74206876    -0.26690
C1246       C  0.13470713  0.82559761  0.76576948    -0.14770
C1247       C  0.15496666  0.82195514  0.79179495     0.35860
C1248       C  0.19783594  0.84160062  0.79280803    -0.26140
C1249       C  0.22178287  0.86587771  0.76895656    -0.15380
C1250       C  0.20169354  0.87008034  0.74330661     0.36950
N1251       N  0.22472602  0.89240748  0.71758160    -0.89630
H1252       H  0.14399641  0.85344075  0.72194836     0.18060
H1253       H  0.21262309  0.83783418  0.81257811     0.18050
N1254       N  0.13326303  0.79892652  0.81783498    -0.88660
H1255       H  0.21542135  0.87358205  0.69887796     0.35430
H1256       H  0.21738891  0.91358822  0.71279703     0.40530
H1257       H  0.10202928  0.78654765  0.81528695     0.40150
H1258       H  0.14221125  0.81783842  0.83646474     0.35040
C1259       C  0.15153364  0.51391948  0.77236124    -0.26690
C1260       C  0.17207925  0.52223271  0.80071077    -0.14770
C1261       C  0.18480045  0.49701717  0.81114496     0.35860
C1262       C  0.18761760  0.47274946  0.78992690    -0.26140
C1263       C  0.18406412  0.47918623  0.75883396    -0.15380
C1264       C  0.15895182  0.49337885  0.75048230     0.36950
N1265       N  0.14691423  0.49230232  0.71921333    -0.89630
H1266       H  0.13652186  0.52919830  0.76535643     0.18060
H1267       H  0.20300046  0.45771978  0.79684816     0.18050
N1268       N  0.19893100  0.49866977  0.84178176    -0.88660
H1269       H  0.12931665  0.50504185  0.71684723     0.35430
H1270       H  0.17307763  0.50949082  0.70646093     0.40530
H1271       H  0.19488162  0.01809534  0.85464931     0.40150
H1272       H  0.18043129  0.97090967  0.85142544     0.35040
C1273       C  0.13381446  0.63588073  0.80104583    -0.26690
C1274       C  0.15810844  0.62695305  0.78383714    -0.14770
C1275       C  0.15216907  0.62250928  0.75196761     0.35860
C1276       C  0.12550886  0.63138689  0.73783225    -0.26140
C1277       C  0.11018612  0.65036709  0.75431443    -0.15380
C1278       C  0.10967670  0.64800610  0.78628589     0.36950
N1279       N  0.08999238  0.66365428  0.80333308    -0.89630
H1280       H  0.13639759  0.63664443  0.82564146     0.18060
H1281       H  0.12462963  0.63202597  0.71317388     0.18050
N1282       N  0.17534504  0.61254151  0.73311262    -0.88660
H1283       H  0.09404360  0.66138598  0.82667498     0.35430
H1284       H  0.05880626  0.64611098  0.79879040     0.40530
H1285       H  0.20604043  0.63440827  0.73510795     0.40150
H1286       H  0.17175784  0.58615949  0.74058873     0.35040
C1287       C  0.30939429  0.65872776  0.75971965    -0.26690
C1288       C  0.29832280  0.65187439  0.79056827    -0.14770
C1289       C  0.32960288  0.66970985  0.81296613     0.35860
C1290       C  0.37052485  0.69107804  0.80413797    -0.26140
C1291       C  0.38167159  0.69730773  0.77349276    -0.15380
C1292       C  0.35065883  0.68170100  0.75097371     0.36950
N1293       N  0.36102959  0.68958736  0.71943707    -0.89630
H1294       H  0.28566733  0.64619238  0.74239048     0.18060
H1295       H  0.39402966  0.70333719  0.82157756     0.18050
N1296       N  0.32125935  0.66849437  0.84476663    -0.88660
H1297       H  0.33475133  0.67659884  0.70578696     0.35430
H1298       H  0.37696930  0.67610112  0.71386224     0.40530
H1299       H  0.29020757  0.65146893  0.84906357     0.40150
H1300       H  0.33530367  0.65554629  0.85600405     0.35040
C1301       C  0.26729007  0.54749103  0.62961221    -0.26690
C1302       C  0.27957002  0.52334699  0.64326922    -0.14770
C1303       C  0.27760935  0.49287938  0.62580794     0.35860
C1304       C  0.26396373  0.48775508  0.59534148    -0.26140
C1305       C  0.25327122  0.51291974  0.58156183    -0.15380
C1306       C  0.25354492  0.54232481  0.59936026     0.36950
N1307       N  0.23975467  0.56721036  0.58774409    -0.89630
H1308       H  0.26738159  0.57028568  0.64272785     0.18060
H1309       H  0.26392895  0.46534685  0.58175913     0.18050
N1310       N  0.29077258  0.46810640  0.63854365    -0.88660
H1311       H  0.21669096  0.06379437  0.60194838     0.35430
H1312       H  0.22581369  0.05787790  0.56643567     0.40530
H1313       H  0.32212558  0.48573712  0.64223530     0.40150
H1314       H  0.28638628  0.44665244  0.62294829     0.35040
C1315       C  0.26609069  0.98935416  0.87885970    -0.26690
C1316       C  0.27322384  0.52223277  0.89545590    -0.14770
C1317       C  0.29303027  0.55917282  0.88078564     0.35520
C1318       C  0.30350449  0.56229657  0.85005548    -0.26140
C1319       C  0.29510812  0.52934151  0.83309950    -0.15380
C1320       C  0.27688014  0.49251668  0.84804432     0.36950
N1321       N  0.26802698  0.95791981  0.83197210    -0.89630
H1322       H  0.25181846  0.96085639  0.88973043     0.18060
H1323       H  0.31786613  0.59083243  0.83928568     0.18050
N1324       N  0.30229957  0.59380243  0.89692473    -0.88660
H1325       H  0.23685871  0.93746274  0.83342240     0.35430
H1326       H  0.28341207  0.94606482  0.84295484     0.40530
H1327       H  0.28652621  0.60552508  0.88645033     0.40150
H1328       H  0.33355205  0.61399457  0.89564935     0.35040
C1329       C  0.18115548  0.74799545  0.58762958    -0.26690
C1330       C  0.21243210  0.74324880  0.57674559    -0.14770
C1331       C  0.22851753  0.72631659  0.59629305     0.35860
C1332       C  0.21431417  0.71637053  0.62630128    -0.26140
C1333       C  0.18385968  0.72224789  0.63744300    -0.15380
C1334       C  0.16659549  0.73761882  0.61741334     0.36950
N1335       N  0.13446892  0.74294300  0.62714130    -0.89630
H1336       H  0.16750431  0.75978446  0.57272032     0.18060
H1337       H  0.22807030  0.70477164  0.64129117     0.18050
N1338       N  0.25971990  0.71992611  0.58606009    -0.88660
H1339       H  0.12009706  0.74707806  0.60837925     0.35430
H1340       H  0.14795401  0.76910450  0.63945849     0.40530
H1341       H  0.24622630  0.69681910  0.57048779     0.40150
H1342       H  0.27053767  0.71037550  0.60400758     0.35040
C1343       C  0.24407117  0.74900717  0.87151277    -0.26690
C1344       C  0.21828518  0.75420216  0.89022422    -0.14770
C1345       C  0.18344800  0.75200034  0.87676943     0.35860
C1346       C  0.17707386  0.74758562  0.84501508    -0.26140
C1347       C  0.20334484  0.74328917  0.82623655    -0.15380
C1348       C  0.23673063  0.74313311  0.83996519     0.36950
N1349       N  0.26360788  0.73714774  0.82212604    -0.89630
H1350       H  0.27017778  0.74939434  0.88138719     0.18060
H1351       H  0.15029059  0.74563456  0.83500913     0.18050
N1352       N  0.15351751  0.75245272  0.89538151    -0.88660
H1353       H  0.26268119  0.71217992  0.83050921     0.35430
H1354       H  0.29306267  0.76081017  0.82600213     0.40530
H1355       H  0.14082968  0.72742503  0.90914459     0.40150
H1356       H  0.12971187  0.74962856  0.88174895     0.35040
C1357       C  0.11459286  0.62673050  0.46296279    -0.26690
C1358       C  0.12736746  0.65288363  0.98732472    -0.14770
C1359       C  0.11188628  0.63951628  0.01664870     0.35860
C1360       C  0.08306648  0.60022999  0.02100421    -0.26140
C1361       C  0.06910350  0.57427608  0.99645907    -0.15380
C1362       C  0.08492816  0.58737578  0.46726043     0.36950
N1363       N  0.06955568  0.56115153  0.44186452    -0.89630
H1364       H  0.12763850  0.63691730  0.44066195     0.18060
H1365       H  0.07004821  0.59012424  0.04332149     0.18050
N1366       N  0.12577327  0.66498948  0.04245927    -0.88660
H1367       H  0.09395451  0.56110232  0.43200277     0.35430
H1368       H  0.05777539  0.57219435  0.42582874     0.40530
H1369       H  0.12123300  0.68811577  0.03798812     0.40150
H1370       H  0.15683850  0.67620791  0.04531314     0.35040
C1371       C  0.35994409  0.86923789  0.01818525    -0.26690
C1372       C  0.33797939  0.86280787  0.99091978    -0.14770
C1373       C  0.35556784  0.88872119  0.46637999     0.35860
C1374       C  0.39527215  0.92090739  0.46959417    -0.26140
C1375       C  0.41734254  0.92778793  0.99696762    -0.15380
C1376       C  0.39922707  0.90190045  0.02179012     0.36950
N1377       N  0.41891424  0.90834453  0.05105870    -0.89630
H1378       H  0.34620992  0.84886004  0.03694858     0.18060
H1379       H  0.40917391  0.94091332  0.45069293     0.18050
N1380       N  0.33326212  0.88189319  0.43827608    -0.88660
H1381       H  0.42442903  0.88570963  0.05484034     0.35430
H1382       H  0.44697448  0.93460749  0.05186838     0.40530
H1383       H  0.32838909  0.85580927  0.42900661     0.40150
H1384       H  0.35054953  0.90405918  0.42256724     0.35040
C1385       C  0.48859730  0.62307720  0.53376681    -0.26690
C1386       C  0.49913243  0.64809530  0.50843866    -0.14770
C1387       C  0.00811345  0.63634009  0.98099140     0.35860
C1388       C  0.00619372  0.60007499  0.97943111    -0.26140
C1389       C  0.49610429  0.57507252  0.50485438    -0.15380
C1390       C  0.48777598  0.58737647  0.53258608     0.36950
N1391       N  0.47891978  0.56483874  0.56014311    -0.89630
H1392       H  0.48164596  0.63171936  0.55496713     0.18060
H1393       H  0.01267888  0.59121365  0.95816874     0.18050
N1394       N  0.01894350  0.66122219  0.95466553    -0.88660
H1395       H  0.50181925  0.58199719  0.57601128     0.35430
H1396       H  0.48013625  0.53969494  0.55706351     0.40530
H1397       H  0.99368823  0.66287488  0.94826114     0.40150
H1398       H  0.02509173  0.64875682  0.93636091     0.35040
C1399       C  0.01100649  0.91938778  0.52845854    -0.26690
C1400       C  0.49419297  0.92633720  0.50221424    -0.14770
C1401       C  0.47966738  0.89801808  0.97853148     0.35860
C1402       C  0.48027831  0.86326784  0.98251821    -0.26140
C1403       C  0.49739426  0.85663717  0.50866077    -0.15380
C1404       C  0.01353815  0.88549948  0.53164340     0.36950
N1405       N  0.03160348  0.87992504  0.55851690    -0.89630
H1406       H  0.02266188  0.94089596  0.54655078     0.18060
H1407       H  0.46869486  0.84183862  0.96434831     0.18050
N1408       N  0.46632955  0.90428580  0.94950140    -0.88660
H1409       H  0.04069188  0.90304349  0.57374125     0.35430
H1410       H  0.05812308  0.88114601  0.55197799     0.40530
H1411       H  0.47018926  0.93203532  0.94791877     0.40150
H1412       H  0.43531355  0.88348609  0.94707383     0.35040
C1413       C  0.07834716  0.99097979  0.96908495    -0.26690
C1414       C  0.07019906  0.50242638  0.49676361    -0.14770
C1415       C  0.10014423  0.51770248  0.52015281     0.35860
C1416       C  0.13808767  0.52279650  0.51466667    -0.26140
C1417       C  0.14638169  0.51179325  0.48690515    -0.15380
C1418       C  0.11604758  0.99522841  0.96387733     0.36950
N1419       N  0.12272800  0.98365281  0.93478112    -0.89630
H1420       H  0.05544520  0.97942616  0.95111824     0.18060
H1421       H  0.16085351  0.53407018  0.53274079     0.18050
N1422       N  0.09272784  0.52683959  0.54996922    -0.88660
H1423       H  0.10365386  0.95321921  0.93310732     0.35430
H1424       H  0.15250751  0.99018396  0.93264940     0.40530
H1425       H  0.06297178  0.52034833  0.55213713     0.40150
H1426       H  0.11210235  0.55696782  0.55337432     0.35040
C1427       C  0.39788049  0.49357581  0.52307027    -0.26690
C1428       C  0.42150697  0.50157148  0.49720440    -0.14770
C1429       C  0.41199127  0.01440208  0.96993210     0.35860
C1430       C  0.37955585  0.02026739  0.96968784    -0.26140
C1431       C  0.35621409  0.51246718  0.49561927    -0.15380
C1432       C  0.36505533  0.49873794  0.52245422     0.36950
N1433       N  0.34142788  0.49031327  0.54933183    -0.89630
H1434       H  0.40548613  0.48395450  0.54389874     0.18060
H1435       H  0.37177445  0.02984718  0.94890493     0.18050
N1436       N  0.43450778  0.02186371  0.94236290    -0.88660
H1437       H  0.31152973  0.46821132  0.54425401     0.35430
H1438       H  0.34159989  0.51555563  0.55545093     0.40530
H1439       H  0.45737240  0.01550804  0.94478302     0.40150
H1440       H  0.41441491  0.00268732  0.92575078     0.35040
C1441       C  0.99547915  0.03672723  0.00210685     0.01910
C1442       C  0.95872836  0.50062778  0.00018589     0.01910
C1443       C  0.95748612  0.46453228  0.99953398     0.01910
C1444       C  0.49407150  0.46417007  0.00016283     0.01910
C1445       C  0.53123180  0.00079708  0.99960890     0.01910
C1446       C  0.53151360  0.03640008  0.00015575     0.01910
O1447       O  0.74332394  0.23993296  0.03008388    -0.73320
O1448       O  0.74687423  0.24661741  0.43742727    -0.74300
O1449       O  0.79861311  0.29462026  0.48688677    -0.62920
O1450       O  0.69658616  0.19333610  0.48152618    -0.71330
O1451       O  0.66063483  0.22210288  0.48441413    -0.70880
O1452       O  0.76571581  0.32647751  0.48553260    -0.62140
O1453       O  0.71087593  0.27505847  0.43914471    -0.74650
O1454       O  0.71160700  0.27261549  0.02965701    -0.73430
Cu1455     Cu  0.74799433  0.24301643  0.48384095     1.04560
Cu1456     Cu  0.71137172  0.27551559  0.48454669     1.04330
C1457       C  0.72414061  0.25312101  0.04417284     0.92880
C1458       C  0.72628994  0.25929933  0.42379135     0.92020
C1459       C  0.79875610  0.32639520  0.48748271     0.84160
C1460       C  0.66290910  0.19142632  0.48357663     0.90430
O1461       O  0.73173189  0.48037473  0.03310957    -0.73320
O1462       O  0.74220198  0.48457710  0.44110289    -0.74300
O1463       O  0.78600269  0.48159392  0.99138593    -0.62920
O1464       O  0.68411975  0.48126001  0.98304865    -0.71330
O1465       O  0.71841237  0.04624159  0.98678457    -0.70880
O1466       O  0.82206698  0.04686508  0.99195449    -0.62140
O1467       O  0.77503706  0.04920746  0.44411314    -0.74650
O1468       O  0.76793585  0.04541669  0.03406074    -0.73430
Cu1469     Cu  0.73445909  0.47961227  0.98698920     1.04560
Cu1470     Cu  0.77181184  0.04917720  0.98914692     1.04330
C1471       C  0.74983898  0.01265012  0.04800231     0.92880
C1472       C  0.76240908  0.01829585  0.42832814     0.92020
C1473       C  0.81978614  0.01393091  0.99301417     0.84160
C1474       C  0.68487585  0.01335586  0.98476093     0.90430
C1475       C  0.68674819  0.11866720  0.29908586     0.02750
C1476       C  0.72877625  0.14242347  0.29388397    -0.13400
C1477       C  0.75419302  0.12751825  0.29861262     0.00250
C1478       C  0.73594974  0.08759977  0.30666315    -0.11920
C1479       C  0.69334836  0.06365974  0.31058631     0.02740
C1480       C  0.67029408  0.08103211  0.31065056    -0.11340
H1481       H  0.74106372  0.17125203  0.28391695     0.08340
H1482       H  0.75388769  0.07420405  0.30630389     0.05870
H1483       H  0.63751568  0.06245014  0.31255149     0.05720
O1484       O  0.00844542  0.29227554  0.30671530    -0.73320
O1485       O  0.00480152  0.28562523  0.21596493    -0.74300
O1486       O  0.94483857  0.25731202  0.26297370    -0.62920
O1487       O  0.56955782  0.32077257  0.26077922    -0.71330
O1488       O  0.56941241  0.26540292  0.26319400    -0.70880
O1489       O  0.94570699  0.20246408  0.26635645    -0.62140
O1490       O  0.00417748  0.22991226  0.21863231    -0.74650
O1491       O  0.01022576  0.23774287  0.30932791    -0.73430
Cu1492     Cu  0.00700341  0.29098886  0.26129151     1.04560
Cu1493     Cu  0.00748051  0.23204758  0.26425227     1.04330
C1494       C  0.00915139  0.26555387  0.32223871     0.92880
C1495       C  0.00304529  0.25638970  0.20300314     0.92020
C1496       C  0.92594989  0.22000899  0.26636443     0.84160
C1497       C  0.58908991  0.30295136  0.26271101     0.90430
C1498       C  0.83620610  0.44167099  0.26401253     0.02750
C1499       C  0.85209689  0.41755734  0.26302042    -0.13400
C1500       C  0.82611552  0.37700625  0.26413851     0.00250
C1501       C  0.78441630  0.36091703  0.27090640    -0.11920
C1502       C  0.76732466  0.38438444  0.27015119     0.02740
C1503       C  0.79375890  0.42492557  0.26658083    -0.11340
H1504       H  0.88368606  0.42998565  0.25711201     0.08340
H1505       H  0.76404558  0.32951813  0.27228345     0.05870
H1506       H  0.78071565  0.44282669  0.26439455     0.05720
O1507       O  0.67601850  0.25308916  0.27907099    -0.73320
O1508       O  0.65716722  0.23380803  0.18285551    -0.74300
O1509       O  0.59847163  0.20145791  0.23981847    -0.62920
O1510       O  0.71343346  0.30349284  0.22061633    -0.71330
O1511       O  0.69988333  0.24770918  0.22911123    -0.70880
O1512       O  0.65629431  0.21149266  0.23352591    -0.62140
O1513       O  0.69122629  0.20083754  0.18696783    -0.74650
O1514       O  0.70474113  0.21526816  0.27879661    -0.73430
Cu1515     Cu  0.65990345  0.24859191  0.23055986     1.04560
Cu1516     Cu  0.69959300  0.20279803  0.23325296     1.04330
C1517       C  0.69427999  0.23706134  0.29287417     0.92880
C1518       C  0.67549444  0.21742370  0.17077319     0.92020
C1519       C  0.62089844  0.18817244  0.24154743     0.84160
C1520       C  0.72662044  0.28129209  0.22210832     0.90430
O1521       O  0.79771089  0.06084124  0.18917027    -0.73320
O1522       O  0.80694942  0.06480572  0.28609293    -0.74300
O1523       O  0.86961651  0.11088667  0.23479057    -0.62920
O1524       O  0.74381864  0.03438612  0.24069878    -0.71330
O1525       O  0.73990724  0.97743523  0.24140204    -0.70880
O1526       O  0.81771418  0.55311345  0.23681714    -0.62140
O1527       O  0.80018428  0.00532240  0.28440809    -0.74650
O1528       O  0.79205927  0.00160446  0.19142738    -0.73430
Cu1529     Cu  0.80528417  0.06877555  0.23738343     1.04560
Cu1530     Cu  0.79865114  0.99934859  0.23777838     1.04330
C1531       C  0.79102239  0.02903852  0.17620844     0.92880
C1532       C  0.80164925  0.03355292  0.29956660     0.92020
C1533       C  0.85554950  0.07517403  0.23709944     0.84160
C1534       C  0.72350623  0.99731441  0.24418108     0.90430
O1535       O  0.96494564  0.28631642  0.01017406    -0.73320
O1536       O  0.96580381  0.18471971  0.01110569    -0.74300
O1537       O  0.96506583  0.23514808  0.05697948    -0.62920
O1538       O  0.96696458  0.23698729  0.46539716    -0.71330
O1539       O  0.53429035  0.27249800  0.46797621    -0.70880
O1540       O  0.53246032  0.26866862  0.05785488    -0.62140
O1541       O  0.53314087  0.21887867  0.01138630    -0.74650
O1542       O  0.53218675  0.32104181  0.01341215    -0.73430
Cu1543     Cu  0.96330147  0.23450310  0.01098411     1.04560
Cu1544     Cu  0.53527356  0.27134679  0.01281453     1.04330
C1545       C  0.99828445  0.31963894  0.01117295     0.92880
C1546       C  0.99945884  0.18570040  0.01058364     0.92020
C1547       C  0.99881537  0.25222912  0.07182584     0.84160
C1548       C  0.00141639  0.25568235  0.45235753     0.90430
C1549       C  0.83125261  0.35681805  0.21476280    -0.26690
C1550       C  0.83725038  0.35315775  0.24597692    -0.14770
C1551       C  0.82260194  0.31488011  0.25651354     0.35860
C1552       C  0.78748812  0.28437071  0.24256875    -0.26140
C1553       C  0.76940944  0.29394203  0.21872657    -0.15380
C1554       C  0.79417567  0.32803063  0.20177913     0.36950
N1555       N  0.77901592  0.33577738  0.17436218    -0.89630
H1556       H  0.84722550  0.38543512  0.20409382     0.18060
H1557       H  0.77111021  0.25628425  0.25384328     0.18050
N1558       N  0.83793018  0.30804686  0.28415471    -0.88660
H1559       H  0.79962828  0.34130139  0.15710209     0.35430
H1560       H  0.77829427  0.36123846  0.17757647     0.40530
H1561       H  0.83602055  0.32482849  0.30134175     0.40150
H1562       H  0.86868111  0.31824340  0.28109436     0.35040
C1563       C  0.87734529  0.51195880  0.27852743    -0.26690
C1564       C  0.86254438  0.48326196  0.25583069    -0.14770
C1565       C  0.86737215  0.49462575  0.22503306     0.35860
C1566       C  0.87755783  0.53288534  0.21774645    -0.26140
C1567       C  0.88101789  0.05819230  0.24093056    -0.15380
C1568       C  0.88772115  0.55030153  0.27100921     0.36950
N1569       N  0.89760249  0.57888584  0.29435043    -0.89630
H1570       H  0.87595508  0.50347824  0.30216754     0.18060
H1571       H  0.87507511  0.04017047  0.19432593     0.18050
N1572       N  0.85739703  0.46620066  0.20153934    -0.88660
H1573       H  0.89944593  0.56782842  0.31556588     0.35430
H1574       H  0.92659752  0.10284428  0.28984744     0.40530
H1575       H  0.87828503  0.45716980  0.20340179     0.40150
H1576       H  0.86191422  0.47932071  0.18014894     0.35040
C1577       C  0.53059092  0.28612644  0.15330562    -0.26690
C1578       C  0.00062544  0.25396200  0.16958710    -0.14770
C1579       C  0.96926976  0.22113080  0.15358210     0.35860
C1580       C  0.96893165  0.22156536  0.12169180    -0.26140
C1581       C  0.99940201  0.25349339  0.10541342    -0.15380
C1582       C  0.53054113  0.28622714  0.12143205     0.36950
N1583       N  0.56168449  0.31971759  0.10532169    -0.89630
H1584       H  0.55440492  0.31125669  0.16560566     0.18060
H1585       H  0.94488155  0.19645421  0.10954178     0.18050
N1586       N  0.93662668  0.18756443  0.16859596    -0.88660
H1587       H  0.58248937  0.34100646  0.12049714     0.35430
H1588       H  0.54762211  0.33230348  0.09350697     0.40530
H1589       H  0.93863373  0.19066853  0.19214897     0.40150
H1590       H  0.93907168  0.16340504  0.16368668     0.35040
C1591       C  0.53896140  0.26554088  0.37202535    -0.26690
C1592       C  0.00810685  0.26608604  0.35543261    -0.14770
C1593       C  0.97519870  0.26398684  0.37060156     0.35860
C1594       C  0.97282142  0.25925644  0.40231134    -0.26140
C1595       C  0.00373297  0.25857286  0.41899707    -0.15380
C1596       C  0.53765157  0.26274939  0.40374906     0.36950
N1597       N  0.57053977  0.26393173  0.42048699    -0.89630
H1598       H  0.56408049  0.26708255  0.36019939     0.18060
H1599       H  0.94729762  0.25703753  0.41409915     0.18050
N1600       N  0.94382410  0.26544862  0.35372145    -0.88660
H1601       H  0.59469337  0.27106183  0.40617823     0.35430
H1602       H  0.56006830  0.23581432  0.42901900     0.40530
H1603       H  0.95670096  0.29352615  0.34437550     0.40150
H1604       H  0.92095459  0.26186853  0.36822725     0.35040
C1605       C  0.65871144  0.35037879  0.24206426    -0.26690
C1606       C  0.63470389  0.32560125  0.26576560    -0.14770
C1607       C  0.65496432  0.32195938  0.29179079     0.35860
C1608       C  0.69783361  0.34160537  0.29280334    -0.26140
C1609       C  0.72177981  0.36588182  0.26895138    -0.15380
C1610       C  0.70168967  0.37008324  0.24330139     0.36950
N1611       N  0.72472138  0.39240941  0.21757579    -0.89630
H1612       H  0.64399186  0.35344294  0.22194395     0.18060
H1613       H  0.71262136  0.33783972  0.31257340     0.18050
N1614       N  0.63326165  0.29893069  0.31783105    -0.88660
H1615       H  0.71541587  0.37358336  0.19887249     0.35430
H1616       H  0.71738483  0.41359057  0.21279120     0.40530
H1617       H  0.60202776  0.28655078  0.31528316     0.40150
H1618       H  0.64220952  0.31784280  0.33646066     0.35040
C1619       C  0.65153405  0.01391296  0.27235455    -0.26690
C1620       C  0.67207580  0.02222205  0.30070541    -0.14770
C1621       C  0.68479549  0.99700495  0.31113861     0.35860
C1622       C  0.68761606  0.97274076  0.28991911    -0.26140
C1623       C  0.68406762  0.97918282  0.25882647    -0.15380
C1624       C  0.65895682  0.99337703  0.25047432     0.36950
N1625       N  0.64692497  0.99230649  0.21920453    -0.89630
H1626       H  0.63652291  0.02919258  0.26535036     0.18060
H1627       H  0.70299811  0.95771020  0.29684025     0.18050
N1628       N  0.69892237  0.99865348  0.34177601    -0.88660
H1629       H  0.62932774  0.00504639  0.21683841     0.35430
H1630       H  0.67309074  0.00949752  0.20645517     0.40530
H1631       H  0.69490794  0.51812961  0.35465900     0.40150
H1632       H  0.68045495  0.47094242  0.35144362     0.35040
C1633       C  0.63381971  0.13587796  0.30105413    -0.26690
C1634       C  0.65811165  0.12694951  0.28384363    -0.14770
C1635       C  0.65217103  0.12250752  0.25197412     0.35860
C1636       C  0.62551035  0.13138589  0.23784071    -0.26140
C1637       C  0.61018924  0.15036621  0.25432463    -0.15380
C1638       C  0.60968227  0.14800506  0.28629609     0.36950
N1639       N  0.59000037  0.16365420  0.30334514    -0.89630
H1640       H  0.63640402  0.13664056  0.32564970     0.18060
H1641       H  0.62462966  0.13202560  0.21318240     0.18050
N1642       N  0.67534666  0.11254134  0.23311722    -0.88660
H1643       H  0.59405329  0.16138564  0.32668673     0.35430
H1644       H  0.55881384  0.14611173  0.29880376     0.40530
H1645       H  0.70604202  0.13440823  0.23511254     0.40150
H1646       H  0.67176013  0.08615904  0.24059170     0.35040
C1647       C  0.80939265  0.15870714  0.25971789    -0.26690
C1648       C  0.79832198  0.15186266  0.29056687    -0.14770
C1649       C  0.82960211  0.16970758  0.31296382     0.35860
C1650       C  0.87052380  0.19107691  0.30413502    -0.26140
C1651       C  0.88166992  0.19729874  0.27348960    -0.15380
C1652       C  0.85065669  0.18168219  0.25097094     0.36950
N1653       N  0.86102621  0.18956221  0.21943369    -0.89630
H1654       H  0.78566535  0.14616464  0.24238924     0.18060
H1655       H  0.89402883  0.20334304  0.32157418     0.18050
N1656       N  0.82125863  0.16849948  0.34476372    -0.88660
H1657       H  0.83474767  0.17656555  0.20578382     0.35430
H1658       H  0.87697211  0.17608100  0.21386270     0.40530
H1659       H  0.79020699  0.15147385  0.34906104     0.40150
H1660       H  0.83530412  0.15555507  0.35600509     0.35040
C1661       C  0.76729474  0.04748482  0.12961326    -0.26690
C1662       C  0.77957698  0.02334192  0.14326909    -0.14770
C1663       C  0.77761500  0.99287397  0.12580748     0.35860
C1664       C  0.76396619  0.98774853  0.09534164    -0.26140
C1665       C  0.75327141  0.01291226  0.08156313    -0.15380
C1666       C  0.75354589  0.04231714  0.09936231     0.36950
N1667       N  0.73975255  0.06720100  0.08774789    -0.89630
H1668       H  0.76738674  0.07027944  0.14272930     0.18060
H1669       H  0.76393001  0.96533989  0.08175894     0.18050
N1670       N  0.79077930  0.96810139  0.13854235    -0.88660
H1671       H  0.71666974  0.56378744  0.10194487     0.35430
H1672       H  0.72579807  0.55787403  0.06643287     0.40530
H1673       H  0.82213240  0.98573219  0.14223370     0.40150
H1674       H  0.78639265  0.94664760  0.12294668     0.35040
C1675       C  0.76610075  0.48935622  0.37886127    -0.26690
C1676       C  0.77322205  0.02223391  0.39545536    -0.14770
C1677       C  0.79302415  0.05917278  0.38078337     0.35520
C1678       C  0.80349958  0.06229567  0.35005352    -0.26140
C1679       C  0.79510699  0.02934055  0.33309910    -0.15380
C1680       C  0.77688033  0.99251658  0.34804507     0.36950
N1681       N  0.76803259  0.45792115  0.33197256    -0.89630
H1682       H  0.75182776  0.46085834  0.38973187     0.18060
H1683       H  0.81785891  0.09083095  0.33928281     0.18050
N1684       N  0.80228782  0.09380205  0.39692033    -0.88660
H1685       H  0.73686457  0.43746394  0.33342477     0.35430
H1686       H  0.78341894  0.44606645  0.34295377     0.40530
H1687       H  0.78651331  0.10552174  0.38644305     0.40150
H1688       H  0.83353990  0.11399639  0.39564633     0.35040
C1689       C  0.68114757  0.24798760  0.08763814    -0.26690
C1690       C  0.71242276  0.24323964  0.07675289    -0.14770
C1691       C  0.72850797  0.22630633  0.09629947     0.35860
C1692       C  0.71430629  0.21636107  0.12630819    -0.26140
C1693       C  0.68385357  0.22224015  0.13745121    -0.15380
C1694       C  0.66658904  0.23761145  0.11742229     0.36950
N1695       N  0.63446403  0.24293715  0.12715161    -0.89630
H1696       H  0.66749642  0.25977737  0.07272965     0.18060
H1697       H  0.72806245  0.20476158  0.14129743     0.18050
N1698       N  0.75970848  0.21991394  0.08606512    -0.88660
H1699       H  0.62008871  0.24706821  0.10838990     0.35430
H1700       H  0.64795115  0.26910105  0.13946581     0.40530
H1701       H  0.74621310  0.19680697  0.07049285     0.40150
H1702       H  0.77052631  0.21036250  0.10401198     0.35040
C1703       C  0.74407849  0.24900957  0.37152012    -0.26690
C1704       C  0.71829541  0.25420891  0.39023160    -0.14770
C1705       C  0.68345962  0.25201022  0.37677697     0.35860
C1706       C  0.67708418  0.24759424  0.34502280    -0.26140
C1707       C  0.70335170  0.24329240  0.32624434    -0.15380
C1708       C  0.73673617  0.24313364  0.33997276     0.36950
N1709       N  0.76361013  0.23714349  0.32213358    -0.89630
H1710       H  0.77018395  0.24939444  0.38139438     0.18060
H1711       H  0.65030241  0.24564654  0.33501704     0.18050
N1712       N  0.65353161  0.25246705  0.39538910    -0.88660
H1713       H  0.76268103  0.21217490  0.33051770     0.35430
H1714       H  0.79306630  0.26080456  0.32600785     0.40530
H1715       H  0.64084168  0.22743979  0.40915273     0.40150
H1716       H  0.62972681  0.24964496  0.38175668     0.35040
C1717       C  0.61458253  0.12672199  0.96296964    -0.26690
C1718       C  0.62737817  0.15289214  0.48733072    -0.14770
C1719       C  0.61189545  0.13952392  0.51665421     0.35860
C1720       C  0.58307636  0.10023722  0.52100896    -0.26140
C1721       C  0.56911565  0.07428382  0.49646351    -0.15380
C1722       C  0.58491748  0.08736738  0.96726679     0.36950
N1723       N  0.56954588  0.06114342  0.94187067    -0.89630
H1724       H  0.62762908  0.13690897  0.94066907     0.18060
H1725       H  0.57005666  0.09013077  0.54332576     0.18050
N1726       N  0.62578018  0.16499664  0.54246503    -0.88660
H1727       H  0.59394503  0.06109414  0.93200959     0.35430
H1728       H  0.55776640  0.07218657  0.92583448     0.40530
H1729       H  0.62123917  0.18812240  0.53799347     0.40150
H1730       H  0.65684544  0.17621599  0.54531998     0.35040
C1731       C  0.85995784  0.36924742  0.51818915    -0.26690
C1732       C  0.83799036  0.36281654  0.49092499    -0.14770
C1733       C  0.85555341  0.38871258  0.96638426     0.35860
C1734       C  0.89525786  0.42089898  0.96959679    -0.26140
C1735       C  0.91735442  0.42779623  0.49696837    -0.15380
C1736       C  0.89924132  0.40190989  0.52179184     0.36950
N1737       N  0.91893143  0.40835510  0.55105931    -0.89630
H1738       H  0.84622550  0.34887035  0.53695316     0.18060
H1739       H  0.90915797  0.44090445  0.95069508     0.18050
N1740       N  0.83324537  0.38188387  0.93828142    -0.88660
H1741       H  0.92444629  0.38572017  0.55484048     0.35430
H1742       H  0.94699186  0.43461795  0.55186745     0.40530
H1743       H  0.82837181  0.35579986  0.92901172     0.40150
H1744       H  0.85053135  0.40404961  0.92257201     0.35040
C1745       C  0.98858735  0.12307024  0.03376183    -0.26690
C1746       C  0.99912474  0.14808889  0.00843385    -0.14770
C1747       C  0.50812663  0.13634823  0.48099056     0.35860
C1748       C  0.50620740  0.10008328  0.47943096    -0.26140
C1749       C  0.99609388  0.07506471  0.00485026    -0.15380
C1750       C  0.98776470  0.08736883  0.03258148     0.36950
N1751       N  0.97890624  0.06483058  0.06013840    -0.89630
H1752       H  0.98163516  0.13171245  0.05496177     0.18060
H1753       H  0.51269496  0.09122262  0.45816929     0.18050
N1754       N  0.51896008  0.16123145  0.45466511    -0.88660
H1755       H  0.00180507  0.08198828  0.07600722     0.35430
H1756       H  0.98012185  0.03968627  0.05705910     0.40530
H1757       H  0.49370556  0.16288430  0.44825856     0.40150
H1758       H  0.52511084  0.14876688  0.43636132     0.35040
C1759       C  0.51099949  0.41938259  0.02845786    -0.26690
C1760       C  0.99418185  0.42632973  0.00221171    -0.14770
C1761       C  0.97967584  0.39802484  0.47852851     0.35860
C1762       C  0.98028518  0.36327380  0.48251546    -0.26140
C1763       C  0.99738603  0.35663095  0.00865690    -0.15380
C1764       C  0.51353177  0.38549450  0.03164172     0.36950
N1765       N  0.53159979  0.37992083  0.05851394    -0.89630
H1766       H  0.52265642  0.44089106  0.04654991     0.18060
H1767       H  0.96869925  0.34184359  0.46434623     0.18050
N1768       N  0.96633597  0.40429177  0.44949902    -0.88660
H1769       H  0.54068934  0.40303949  0.07373830     0.35430
H1770       H  0.55811894  0.38114208  0.05197332     0.40530
H1771       H  0.97019664  0.43204167  0.44791613     0.40150
H1772       H  0.93531958  0.38349272  0.44707299     0.35040
C1773       C  0.57835774  0.49098699  0.46908512    -0.26690
C1774       C  0.57018721  0.00241814  0.99676997    -0.14770
C1775       C  0.60013185  0.01769413  0.02015959     0.35860
C1776       C  0.63807573  0.02278879  0.01467387    -0.26140
C1777       C  0.64637062  0.01178645  0.98691228    -0.15380
C1778       C  0.61605737  0.49523376  0.46387744     0.36950
N1779       N  0.62273616  0.48365554  0.43478180    -0.89630
H1780       H  0.55545503  0.47943250  0.45111895     0.18060
H1781       H  0.66084124  0.03406242  0.03274822     0.18050
N1782       N  0.59271451  0.02683064  0.04997588    -0.88660
H1783       H  0.60366099  0.45322194  0.43310925     0.35430
H1784       H  0.65251520  0.49018535  0.43264999     0.40530
H1785       H  0.56295826  0.02033906  0.05214329     0.40150
H1786       H  0.61208865  0.05695886  0.05338128     0.35040
C1787       C  0.89786966  0.99356879  0.02306353    -0.26690
C1788       C  0.92149616  0.00156447  0.99719776    -0.14770
C1789       C  0.91200144  0.51440937  0.46993292     0.35860
C1790       C  0.87956527  0.52027346  0.46968969    -0.26140
C1791       C  0.85620483  0.01246243  0.99561307    -0.15380
C1792       C  0.86504545  0.99873218  0.02244775     0.36950
N1793       N  0.84141810  0.99030748  0.04932539    -0.89630
H1794       H  0.90547465  0.98394659  0.04389184     0.18060
H1795       H  0.87178265  0.52985280  0.44890711     0.18050
N1796       N  0.93451671  0.52187114  0.44236304    -0.88660
H1797       H  0.81151983  0.96820597  0.04424741     0.35430
H1798       H  0.84159076  0.01555004  0.05544488     0.40530
H1799       H  0.95738184  0.51551605  0.44478227     0.40150
H1800       H  0.91442325  0.50269434  0.42575135     0.35040
C1801       C  0.99549105  0.03673415  0.50210751     0.01910
C1802       C  0.95873913  0.50063640  0.50018501     0.01910
C1803       C  0.95749638  0.46454072  0.49953335     0.01910
C1804       C  0.49408094  0.46417742  0.50016357     0.01910
C1805       C  0.53124551  0.00080544  0.49960855     0.01910
C1806       C  0.53152680  0.03640823  0.50015520     0.01910
O1807       O  0.74333253  0.23994131  0.53008618    -0.73320
O1808       O  0.74686214  0.24660886  0.93742509    -0.74300
O1809       O  0.79860273  0.29461149  0.98688384    -0.62920
O1810       O  0.69657508  0.19332729  0.98152455    -0.71330
O1811       O  0.66062402  0.22209414  0.98441473    -0.70880
O1812       O  0.76570549  0.32646879  0.98553019    -0.62140
O1813       O  0.71086181  0.27504805  0.93914367    -0.74650
O1814       O  0.71161500  0.27262323  0.52965787    -0.73430
Cu1815     Cu  0.74798370  0.24300772  0.98383860     1.04560
Cu1816     Cu  0.71136090  0.27550673  0.98454577     1.04330
C1817       C  0.72414768  0.25312839  0.54417431     0.92880
C1818       C  0.72627632  0.25928962  0.92378998     0.92020
C1819       C  0.79874584  0.32638648  0.98748002     0.84160
C1820       C  0.66289814  0.19141753  0.98357637     0.90430
O1821       O  0.73174014  0.48037998  0.53310987    -0.73320
O1822       O  0.74219437  0.48457456  0.94110249    -0.74300
O1823       O  0.78601114  0.48159852  0.49138669    -0.62920
O1824       O  0.68412753  0.48126371  0.48304872    -0.71330
O1825       O  0.71842492  0.04624611  0.48678515    -0.70880
O1826       O  0.82207844  0.04686849  0.49195485    -0.62140
O1827       O  0.77502589  0.04920540  0.94411257    -0.74650
O1828       O  0.76794908  0.04542200  0.53406124    -0.73430
Cu1829     Cu  0.73446713  0.47961627  0.48698962     1.04560
Cu1830     Cu  0.77182388  0.04918099  0.48914738     1.04330
C1831       C  0.74985273  0.01265589  0.54800348     0.92880
C1832       C  0.76239784  0.01829422  0.92832700     0.92020
C1833       C  0.81979732  0.01393425  0.49301521     0.84160
C1834       C  0.68488814  0.01336060  0.48476202     0.90430
C1835       C  0.68675432  0.11866720  0.79910278     0.02750
C1836       C  0.72878316  0.14242300  0.79390440    -0.13400
C1837       C  0.75419605  0.12751210  0.79862491     0.00250
C1838       C  0.73594892  0.08759067  0.80666688    -0.11920
C1839       C  0.69334746  0.06365271  0.81059006     0.02740
C1840       C  0.67029642  0.08102827  0.81066071    -0.11340
H1841       H  0.74107322  0.17125445  0.78394216     0.08340
H1842       H  0.75388343  0.07419184  0.80630030     0.05870
H1843       H  0.63751757  0.06244740  0.81255901     0.05720
O1844       O  0.00844399  0.29227575  0.80671599    -0.73320
O1845       O  0.00479701  0.28562602  0.71596577    -0.74300
O1846       O  0.94483559  0.25730955  0.76297659    -0.62920
O1847       O  0.56955504  0.32076686  0.76077945    -0.71330
O1848       O  0.56941398  0.26539943  0.76319511    -0.70880
O1849       O  0.94570734  0.20246313  0.76635624    -0.62140
O1850       O  0.00417801  0.22991549  0.71863193    -0.74650
O1851       O  0.01022622  0.23774404  0.80932745    -0.73430
Cu1852     Cu  0.00700019  0.29098916  0.76129250     1.04560
Cu1853     Cu  0.00748100  0.23204967  0.76425183     1.04330
C1854       C  0.00915115  0.26555435  0.82223883     0.92880
C1855       C  0.00304350  0.25639211  0.70300336     0.92020
C1856       C  0.92594871  0.22000646  0.76636651     0.84160
C1857       C  0.58908928  0.30294780  0.76271199     0.90430
C1858       C  0.83620584  0.44167098  0.76400682     0.02750
C1859       C  0.85209422  0.41755565  0.76300639    -0.13400
C1860       C  0.82611129  0.37700472  0.76412185     0.00250
C1861       C  0.78441406  0.36091671  0.77089593    -0.11920
C1862       C  0.76732411  0.38438550  0.77014729     0.02740
C1863       C  0.79375930  0.42492691  0.76657959    -0.11340
H1864       H  0.88368199  0.42998324  0.75709407     0.08340
H1865       H  0.76404229  0.32951799  0.77227211     0.05870
H1866       H  0.78071703  0.44282930  0.76439848     0.05720
O1867       O  0.67599768  0.25307778  0.77907080    -0.73320
O1868       O  0.65714817  0.23379285  0.68285413    -0.74300
O1869       O  0.59845415  0.20143185  0.73981891    -0.62920
O1870       O  0.71340147  0.30348406  0.72061407    -0.71330
O1871       O  0.69986248  0.24770385  0.72911103    -0.70880
O1872       O  0.65628345  0.21148342  0.73352495    -0.62140
O1873       O  0.69122515  0.20083993  0.68696683    -0.74650
O1874       O  0.70473686  0.21527109  0.77879555    -0.73430
Cu1875     Cu  0.65988093  0.24857584  0.73055911     1.04560
Cu1876     Cu  0.69959169  0.20280188  0.73325189     1.04330
C1877       C  0.69426722  0.23705756  0.79287345     0.92880
C1878       C  0.67548582  0.21741882  0.67077187     0.92020
C1879       C  0.62088999  0.18815654  0.74154840     0.84160
C1880       C  0.72659397  0.28128780  0.72210463     0.90430
O1881       O  0.79773130  0.06084991  0.68917035    -0.73320
O1882       O  0.80695486  0.06480960  0.78609336    -0.74300
O1883       O  0.86963165  0.11088837  0.73479675    -0.62920
O1884       O  0.74383086  0.03439662  0.74069358    -0.71330
O1885       O  0.73991408  0.97744329  0.74139723    -0.70880
O1886       O  0.81771525  0.55311636  0.73681869    -0.62140
O1887       O  0.80018348  0.00532359  0.78440942    -0.74650
O1888       O  0.79207329  0.00161028  0.69142828    -0.73430
Cu1889     Cu  0.80529766  0.06878178  0.73738384     1.04560
Cu1890     Cu  0.79865744  0.99935146  0.73777990     1.04330
C1891       C  0.79104081  0.02904632  0.67620881     0.92880
C1892       C  0.80164922  0.03355494  0.79956732     0.92020
C1893       C  0.85556102  0.07517518  0.73710531     0.84160
C1894       C  0.72351508  0.99732462  0.74417386     0.90430
O1895       O  0.96494837  0.28632033  0.51017415    -0.73320
O1896       O  0.96580734  0.18472303  0.51110633    -0.74300
O1897       O  0.96506863  0.23515186  0.55697965    -0.62920
O1898       O  0.96696312  0.23698477  0.96539664    -0.71330
O1899       O  0.53428650  0.27249173  0.96797640    -0.70880
O1900       O  0.53246573  0.26867240  0.55785507    -0.62140
O1901       O  0.53314712  0.21888445  0.51138496    -0.74650
O1902       O  0.53219145  0.32104650  0.51341341    -0.73430
Cu1903     Cu  0.96330409  0.23450647  0.51098451     1.04560
Cu1904     Cu  0.53527860  0.27135192  0.51281448     1.04330
C1905       C  0.99828732  0.31964288  0.51117327     0.92880
C1906       C  0.99946279  0.18570437  0.51058402     0.92020
C1907       C  0.99881796  0.25223297  0.57182619     0.84160
C1908       C  0.00141516  0.25567920  0.95235718     0.90430
C1909       C  0.83122718  0.35681712  0.71474080    -0.26690
C1910       C  0.83723966  0.35315720  0.74595225    -0.14770
C1911       C  0.82259491  0.31487943  0.75648676     0.35860
C1912       C  0.78747159  0.28437124  0.74255077    -0.26140
C1913       C  0.76938346  0.29394310  0.71871590    -0.15380
C1914       C  0.79414295  0.32803101  0.70176555     0.36950
N1915       N  0.77897194  0.33577781  0.67435466    -0.89630
H1916       H  0.84719658  0.38543392  0.70407116     0.18060
H1917       H  0.77109771  0.25628552  0.75382678     0.18050
N1918       N  0.83793951  0.30804557  0.78411912    -0.88660
H1919       H  0.79957559  0.34129918  0.65708833     0.35430
H1920       H  0.77825441  0.36124039  0.67757297     0.40530
H1921       H  0.83604712  0.32483263  0.80131022     0.40150
H1922       H  0.86868681  0.31823673  0.78104520     0.35040
C1923       C  0.87734216  0.51195704  0.77852719    -0.26690
C1924       C  0.86254464  0.48326311  0.75582830    -0.14770
C1925       C  0.86737614  0.49463092  0.72503148     0.35860
C1926       C  0.87756163  0.53289113  0.71774742    -0.26140
C1927       C  0.88102549  0.05818992  0.74094026    -0.15380
C1928       C  0.88771881  0.55030065  0.77101144     0.36950
N1929       N  0.89759780  0.57888220  0.79435453    -0.89630
H1930       H  0.87594920  0.50347355  0.80216677     0.18060
H1931       H  0.87508743  0.04016823  0.69433606     0.18050
N1932       N  0.85740480  0.46620920  0.70153568    -0.88660
H1933       H  0.89943905  0.56782225  0.81556941     0.35430
H1934       H  0.92659975  0.10283974  0.78985971     0.40530
H1935       H  0.87829307  0.45717868  0.70339850     0.40150
H1936       H  0.86192493  0.47933225  0.68014631     0.35040
C1937       C  0.53059151  0.28612464  0.65330694    -0.26690
C1938       C  0.00062442  0.25396536  0.66958730    -0.14770
C1939       C  0.96927056  0.22113344  0.65358182     0.35860
C1940       C  0.96893367  0.22156820  0.62169157    -0.26140
C1941       C  0.99940368  0.25349706  0.60541370    -0.15380
C1942       C  0.53054274  0.28622758  0.62143334     0.36950
N1943       N  0.56168404  0.31972078  0.60532415    -0.89630
H1944       H  0.55440327  0.31125537  0.66560794     0.18060
H1945       H  0.94488488  0.19645650  0.60954119     0.18050
N1946       N  0.93662817  0.18756597  0.66859516    -0.88660
H1947       H  0.58248691  0.34100988  0.62050038     0.35430
H1948       H  0.54761916  0.33230464  0.59351001     0.40530
H1949       H  0.93863447  0.19066995  0.69214817     0.40150
H1950       H  0.93907516  0.16340767  0.66368611     0.35040
C1951       C  0.53895497  0.26552306  0.87202596    -0.26690
C1952       C  0.00810715  0.26608596  0.85543273    -0.14770
C1953       C  0.97520300  0.26399416  0.87060231     0.35860
C1954       C  0.97282472  0.25926190  0.90231186    -0.26140
C1955       C  0.00373215  0.25857025  0.91899687    -0.15380
C1956       C  0.53764488  0.26273319  0.90374975     0.36950
N1957       N  0.57052953  0.26390942  0.92048826    -0.89630
H1958       H  0.56407067  0.26705743  0.86020013     0.18060
H1959       H  0.94730380  0.25704839  0.91410018     0.18050
N1960       N  0.94383329  0.26546546  0.85372310    -0.88660
H1961       H  0.59468234  0.27103540  0.90617977     0.35430
H1962       H  0.56005312  0.23579136  0.92902073     0.40530
H1963       H  0.95671612  0.29354447  0.84437891     0.40150
H1964       H  0.92096576  0.26188936  0.86822926     0.35040
C1965       C  0.65870926  0.35038027  0.74206569    -0.26690
C1966       C  0.63470326  0.32560014  0.76576647    -0.14770
C1967       C  0.65496536  0.32195746  0.79179029     0.35860
C1968       C  0.69783479  0.34160513  0.79280172    -0.26140
C1969       C  0.72177941  0.36588389  0.76895012    -0.15380
C1970       C  0.70168757  0.37008612  0.74330167     0.36950
N1971       N  0.72471760  0.39241355  0.71757591    -0.89630
H1972       H  0.64398840  0.35344481  0.72194634     0.18060
H1973       H  0.71262392  0.33783841  0.81257039     0.18050
N1974       N  0.63326439  0.29892575  0.81783001    -0.88660
H1975       H  0.71541199  0.37358800  0.69887229     0.35430
H1976       H  0.71737927  0.41359367  0.71279237     0.40530
H1977       H  0.60203030  0.28654600  0.81528365     0.40150
H1978       H  0.64221302  0.31783590  0.83646095     0.35040
C1979       C  0.65153791  0.01392030  0.77234859    -0.26690
C1980       C  0.67207191  0.02221773  0.80070202    -0.14770
C1981       C  0.68478672  0.99699518  0.81113074     0.35860
C1982       C  0.68761263  0.97273911  0.78990639    -0.26140
C1983       C  0.68407366  0.97919389  0.75881489    -0.15380
C1984       C  0.65896767  0.99339413  0.75046397     0.36950
N1985       N  0.64694648  0.99233811  0.71919311    -0.89630
H1986       H  0.63652923  0.02920334  0.76534732     0.18060
H1987       H  0.70299161  0.95770480  0.79682548     0.18050
N1988       N  0.69890494  0.99863140  0.84176917    -0.88660
H1989       H  0.62935131  0.00508037  0.71682871     0.35430
H1990       H  0.67311675  0.00953394  0.70644952     0.40530
H1991       H  0.69490089  0.51813061  0.85465454     0.40150
H1992       H  0.68044856  0.47094354  0.85143969     0.35040
C1993       C  0.63382132  0.13587288  0.80106223    -0.26690
C1994       C  0.65812182  0.12695124  0.78385594    -0.14770
C1995       C  0.65219010  0.12251209  0.75198557     0.35860
C1996       C  0.62552625  0.13138292  0.73784789    -0.26140
C1997       C  0.61019344  0.15035517  0.75432846    -0.15380
C1998       C  0.60968161  0.14799437  0.78630000     0.36950
N1999       N  0.58998987  0.16363647  0.80334527    -0.89630
H2000       H  0.63639931  0.13663341  0.82565810     0.18060
H2001       H  0.62465066  0.13202358  0.71318947     0.18050
N2002       N  0.67537806  0.11255730  0.73313212    -0.88660
H2003       H  0.59403923  0.16136842  0.82668751     0.35430
H2004       H  0.55880462  0.14608913  0.79880061     0.40530
H2005       H  0.70607050  0.13443122  0.73513036     0.40150
H2006       H  0.67180039  0.08617874  0.74060695     0.35040
C2007       C  0.80939152  0.15868682  0.75972670    -0.26690
C2008       C  0.79832393  0.15185472  0.79057653    -0.14770
C2009       C  0.82960544  0.16971247  0.81297128     0.35860
C2010       C  0.87052617  0.19108372  0.80414019    -0.26140
C2011       C  0.88166944  0.19729442  0.77349402    -0.15380
C2012       C  0.85065422  0.18166409  0.75097696     0.36950
N2013       N  0.86102002  0.18953486  0.71943852    -0.89630
H2014       H  0.78566268  0.14613453  0.74239956     0.18060
H2015       H  0.89403261  0.20335991  0.82157797     0.18050
N2016       N  0.82126394  0.16851367  0.84477080    -0.88660
H2017       H  0.83474021  0.17652741  0.70578996     0.35430
H2018       H  0.87697317  0.17605962  0.71387191     0.40530
H2019       H  0.79021267  0.15148822  0.84906948     0.40150
H2020       H  0.83531097  0.15557323  0.85601612     0.35040
C2021       C  0.76731474  0.04749384  0.62961365    -0.26690
C2022       C  0.77959649  0.02335050  0.64326933    -0.14770
C2023       C  0.77763303  0.99288176  0.62580793     0.35860
C2024       C  0.76398249  0.98775551  0.59534248    -0.26140
C2025       C  0.75328739  0.01291919  0.58156420    -0.15380
C2026       C  0.75356400  0.04232527  0.59936318     0.36950
N2027       N  0.73977068  0.06720932  0.58774914    -0.89630
H2028       H  0.76740789  0.07028911  0.64272961     0.18060
H2029       H  0.76394476  0.96534598  0.58175992     0.18050
N2030       N  0.79079695  0.96810883  0.63854278    -0.88660
H2031       H  0.71667784  0.56379383  0.60194377     0.35430
H2032       H  0.72580711  0.55788064  0.56643198     0.40530
H2033       H  0.82215009  0.98573918  0.64223444     0.40150
H2034       H  0.78641000  0.94665497  0.62294708     0.35040
C2035       C  0.76609299  0.48935492  0.87886086    -0.26690
C2036       C  0.77321082  0.02223305  0.89545424    -0.14770
C2037       C  0.79301198  0.05917203  0.88078242     0.35520
C2038       C  0.80349118  0.06229607  0.85005338    -0.26140
C2039       C  0.79510172  0.02934161  0.83309924    -0.15380
C2040       C  0.77687348  0.99251720  0.84804465     0.36950
N2041       N  0.76802518  0.45792066  0.83197180    -0.89630
H2042       H  0.75181875  0.46085662  0.88973088     0.18060
H2043       H  0.81785060  0.09083182  0.83928320     0.18050
N2044       N  0.80227109  0.09380033  0.89691871    -0.88660
H2045       H  0.73685694  0.43746408  0.83342345     0.35430
H2046       H  0.78341046  0.44606487  0.84295303     0.40530
H2047       H  0.78649806  0.10551963  0.88643830     0.40150
H2048       H  0.83352328  0.11399540  0.89564775     0.35040
C2049       C  0.68115553  0.24799943  0.58763898    -0.26690
C2050       C  0.71242662  0.24324518  0.57675381    -0.14770
C2051       C  0.72850313  0.22630273  0.59629927     0.35860
C2052       C  0.71429714  0.21635449  0.62630675    -0.26140
C2053       C  0.68384877  0.22223994  0.63745011    -0.15380
C2054       C  0.66659332  0.23762159  0.61742219     0.36950
N2055       N  0.63447405  0.24295633  0.62715125    -0.89630
H2056       H  0.66751095  0.25979634  0.57273116     0.18060
H2057       H  0.72804628  0.20474677  0.64129470     0.18050
N2058       N  0.75969850  0.21990289  0.58606484    -0.88660
H2059       H  0.62011405  0.24711019  0.60839061     0.35430
H2060       H  0.64796459  0.26911109  0.63947758     0.40530
H2061       H  0.74620007  0.19679847  0.57049042     0.40150
H2062       H  0.77051043  0.21034468  0.60401103     0.35040
C2063       C  0.74407668  0.24902258  0.87151629    -0.26690
C2064       C  0.71828076  0.25419905  0.89023072    -0.14770
C2065       C  0.68343299  0.25197912  0.87677944     0.35860
C2066       C  0.67705822  0.24756773  0.84502491    -0.26140
C2067       C  0.70333846  0.24328883  0.82624345    -0.15380
C2068       C  0.73673539  0.24315007  0.83996871     0.36950
N2069       N  0.76362434  0.23718591  0.82212559    -0.89630
H2070       H  0.77019199  0.24942397  0.88138831     0.18060
H2071       H  0.65026827  0.24560558  0.83502117     0.18050
N2072       N  0.65349283  0.25240842  0.89539554    -0.88660
H2073       H  0.76271475  0.21222476  0.83050517     0.35430
H2074       H  0.79307331  0.26085861  0.82600155     0.40530
H2075       H  0.64082238  0.22738130  0.90915861     0.40150
H2076       H  0.62967707  0.24956660  0.88176590     0.35040
C2077       C  0.61459470  0.12673081  0.46296954    -0.26690
C2078       C  0.62736713  0.15288339  0.98733084    -0.14770
C2079       C  0.61188453  0.13951552  0.01665440     0.35860
C2080       C  0.58306454  0.10022903  0.02100924    -0.26140
C2081       C  0.56910278  0.07427555  0.99646379    -0.15380
C2082       C  0.58493059  0.08737591  0.46726662     0.36950
N2083       N  0.56956013  0.06115187  0.44187053    -0.89630
H2084       H  0.62764157  0.13691803  0.44066908     0.18060
H2085       H  0.57004502  0.09012286  0.04332612     0.18050
N2086       N  0.62576997  0.16498844  0.04246514    -0.88660
H2087       H  0.59395991  0.06110343  0.43200979     0.35430
H2088       H  0.55778025  0.07219435  0.42583409     0.40530
H2089       H  0.62122906  0.18811427  0.03799367     0.40150
H2090       H  0.65683529  0.17620776  0.04531981     0.35040
C2091       C  0.85994689  0.36923815  0.01818749    -0.26690
C2092       C  0.83798028  0.36280776  0.99092291    -0.14770
C2093       C  0.85556244  0.38872094  0.46638597     0.35860
C2094       C  0.89526695  0.42090732  0.46959764    -0.26140
C2095       C  0.91734438  0.42778750  0.99696799    -0.15380
C2096       C  0.89923034  0.40190053  0.02179099     0.36950
N2097       N  0.91891946  0.40834500  0.05105881    -0.89630
H2098       H  0.84621387  0.34886073  0.03695121     0.18060
H2099       H  0.90916639  0.44091241  0.45069562     0.18050
N2100       N  0.83325332  0.38189173  0.43828360    -0.88660
H2101       H  0.92443412  0.38570993  0.05483993     0.35430
H2102       H  0.94697993  0.43460777  0.05186753     0.40530
H2103       H  0.82837949  0.35580761  0.42901393     0.40150
H2104       H  0.85053864  0.40405724  0.42257385     0.35040
C2105       C  0.98859227  0.12307401  0.53376181    -0.26690
C2106       C  0.99913013  0.14809335  0.50843419    -0.14770
C2107       C  0.50811504  0.13634052  0.98099126     0.35860
C2108       C  0.50619433  0.10007497  0.97943158    -0.26140
C2109       C  0.99610464  0.07507133  0.50485094    -0.15380
C2110       C  0.98777246  0.08737390  0.53258171     0.36950
N2111       N  0.97891381  0.06483538  0.56013850    -0.89630
H2112       H  0.98163782  0.13171486  0.55496141     0.18060
H2113       H  0.51267989  0.09121321  0.95816959     0.18050
N2114       N  0.51894633  0.16122246  0.95466524    -0.88660
H2115       H  0.00181110  0.08199391  0.57600807     0.35430
H2116       H  0.98013212  0.03969246  0.55705955     0.40530
H2117       H  0.49369160  0.16287573  0.94826020     0.40150
H2118       H  0.52509468  0.14875664  0.93636100     0.35040
C2119       C  0.51100847  0.41938935  0.52845844    -0.26690
C2120       C  0.99419063  0.42633692  0.50221066    -0.14770
C2121       C  0.97966942  0.39801873  0.97852889     0.35860
C2122       C  0.98028121  0.36326891  0.98251522    -0.26140
C2123       C  0.99738985  0.35663547  0.50865707    -0.15380
C2124       C  0.51353903  0.38550032  0.53164262     0.36950
N2125       N  0.53160748  0.37992665  0.55851458    -0.89630
H2126       H  0.52266682  0.44089838  0.54655011     0.18060
H2127       H  0.96869688  0.34183935  0.96434555     0.18050
N2128       N  0.96632956  0.40428566  0.94949940    -0.88660
H2129       H  0.54069856  0.40304599  0.57373853     0.35430
H2130       H  0.55812575  0.38114647  0.55197353     0.40530
H2131       H  0.97018869  0.43203496  0.94791694     0.40150
H2132       H  0.93531352  0.38348559  0.94707287     0.35040
C2133       C  0.57834931  0.49098125  0.96908533    -0.26690
C2134       C  0.57020102  0.00242665  0.49676977    -0.14770
C2135       C  0.60014547  0.01770234  0.52015952     0.35860
C2136       C  0.63808886  0.02279559  0.51467426    -0.26140
C2137       C  0.64638337  0.01179212  0.48691303    -0.15380
C2138       C  0.61604952  0.49522930  0.96387766     0.36950
N2139       N  0.62272900  0.48365189  0.93478190    -0.89630
H2140       H  0.55544678  0.47942654  0.95111903     0.18060
H2141       H  0.66085425  0.03406899  0.53274871     0.18050
N2142       N  0.59272838  0.02683980  0.54997555    -0.88660
H2143       H  0.60365470  0.45321820  0.93310919     0.35430
H2144       H  0.65250841  0.49018279  0.93265003     0.40530
H2145       H  0.56297234  0.02034891  0.55214274     0.40150
H2146       H  0.61210303  0.05696803  0.55338056     0.35040
C2147       C  0.89788124  0.99357292  0.52306409    -0.26690
C2148       C  0.92150822  0.00156998  0.49719845    -0.14770
C2149       C  0.91199151  0.51440112  0.96993312     0.35860
C2150       C  0.87955630  0.52026667  0.96968970    -0.26140
C2151       C  0.85621585  0.01246585  0.49561391    -0.15380
C2152       C  0.86505649  0.99873533  0.52244840     0.36950
N2153       N  0.84142881  0.99030962  0.54932595    -0.89630
H2154       H  0.90548636  0.98395053  0.54389225     0.18060
H2155       H  0.87177433  0.52984643  0.94890705     0.18050
N2156       N  0.93450700  0.52186244  0.94236342    -0.88660
H2157       H  0.81153078  0.96820775  0.54424774     0.35430
H2158       H  0.84160078  0.01555175  0.55544576     0.40530
H2159       H  0.95737154  0.51550657  0.94478287     0.40150
H2160       H  0.91441346  0.50268600  0.92575160     0.35040
C2161       C  0.99547975  0.53672710  0.00210854     0.01910
C2162       C  0.95872746  0.00062841  0.00018269     0.01910
C2163       C  0.95748440  0.96453253  0.99953133     0.01910
C2164       C  0.49406848  0.96416866  0.00016353     0.01910
C2165       C  0.53123441  0.50079882  0.99960676     0.01910
C2166       C  0.53151546  0.53640146  0.00015374     0.01910
O2167       O  0.74332280  0.73993429  0.03007540    -0.73320
O2168       O  0.74687255  0.74661711  0.43741695    -0.74300
O2169       O  0.79861291  0.79461985  0.48687592    -0.62920
O2170       O  0.69658464  0.69333604  0.48151645    -0.71330
O2171       O  0.66063411  0.72210351  0.48440534    -0.70880
O2172       O  0.76571663  0.82647806  0.48552185    -0.62140
O2173       O  0.71087406  0.77505808  0.43913480    -0.74650
O2174       O  0.71160527  0.77261623  0.02964886    -0.73430
Cu2175     Cu  0.74799347  0.74301635  0.48383056     1.04560
Cu2176     Cu  0.71137165  0.77551629  0.48453674     1.04330
C2177       C  0.72413917  0.75312188  0.04416453     0.92880
C2178       C  0.72628797  0.75929894  0.42378136     0.92020
C2179       C  0.79875663  0.82639515  0.48747220     0.84160
C2180       C  0.66290782  0.69142659  0.48356783     0.90430
O2181       O  0.73173346  0.98037335  0.03310938    -0.73320
O2182       O  0.74219980  0.98457591  0.44110325    -0.74300
O2183       O  0.78600162  0.98159384  0.99138235    -0.62920
O2184       O  0.68411733  0.98125814  0.98305114    -0.71330
O2185       O  0.71841537  0.54624342  0.98678250    -0.70880
O2186       O  0.82206875  0.54686515  0.99195774    -0.62140
O2187       O  0.77503857  0.54920858  0.44411298    -0.74650
O2188       O  0.76793534  0.54541809  0.03406101    -0.73430
Cu2189     Cu  0.73445731  0.97961130  0.98698866     1.04560
Cu2190     Cu  0.77181428  0.54917815  0.98914751     1.04330
C2191       C  0.74983703  0.51265152  0.04800248     0.92880
C2192       C  0.76241196  0.51829714  0.42832807     0.92020
C2193       C  0.81978738  0.51393076  0.99301820     0.84160
C2194       C  0.68487867  0.51335797  0.98475805     0.90430
C2195       C  0.68675600  0.61867529  0.29909510     0.02750
C2196       C  0.72878407  0.64243100  0.29389354    -0.13400
C2197       C  0.75420023  0.62752520  0.29862230     0.00250
C2198       C  0.73595620  0.58760646  0.30667241    -0.11920
C2199       C  0.69335474  0.56366720  0.31059585     0.02740
C2200       C  0.67030159  0.58104078  0.31066119    -0.11340
H2201       H  0.74107167  0.67125894  0.28392532     0.08340
H2202       H  0.75389344  0.57421002  0.30631219     0.05870
H2203       H  0.63752315  0.56245938  0.31256231     0.05720
O2204       O  0.00845264  0.79228427  0.30671849    -0.73320
O2205       O  0.00480340  0.78563266  0.21596805    -0.74300
O2206       O  0.94484339  0.75731988  0.26297890    -0.62920
O2207       O  0.56956250  0.82077278  0.26078090    -0.71330
O2208       O  0.56941852  0.76540384  0.26319611    -0.70880
O2209       O  0.94571256  0.70247227  0.26636087    -0.62140
O2210       O  0.00418015  0.72992005  0.21863502    -0.74650
O2211       O  0.01023345  0.73775181  0.30933028    -0.73430
Cu2212     Cu  0.00700803  0.79099703  0.26129470     1.04560
Cu2213     Cu  0.00748579  0.73205603  0.26425480     1.04330
C2214       C  0.00915943  0.76556273  0.32224150     0.92880
C2215       C  0.00304657  0.75639692  0.20300611     0.92020
C2216       C  0.92595524  0.72001691  0.26636981     0.84160
C2217       C  0.58909527  0.80295224  0.26271260     0.90430
C2218       C  0.83621117  0.94166996  0.26400752     0.02750
C2219       C  0.85210033  0.91755525  0.26300818    -0.13400
C2220       C  0.82611792  0.87700413  0.26412304     0.00250
C2221       C  0.78441987  0.86091514  0.27089491    -0.11920
C2222       C  0.76732963  0.88438371  0.27014648     0.02740
C2223       C  0.79376450  0.92492522  0.26657952    -0.11340
H2224       H  0.88368858  0.92998348  0.25709698     0.08340
H2225       H  0.76404825  0.82951623  0.27226968     0.05870
H2226       H  0.78072179  0.94282719  0.26439819     0.05720
O2227       O  0.67601254  0.75308617  0.27906157    -0.73320
O2228       O  0.65715865  0.73379980  0.18284654    -0.74300
O2229       O  0.59846612  0.70144623  0.23981159    -0.62920
O2230       O  0.71341996  0.80348906  0.22060511    -0.71330
O2231       O  0.69987699  0.74770787  0.22910161    -0.70880
O2232       O  0.65629103  0.71148764  0.23351716    -0.62140
O2233       O  0.69122630  0.70083763  0.18695888    -0.74650
O2234       O  0.70474367  0.71527254  0.27878715    -0.73430
Cu2235     Cu  0.65989491  0.74858496  0.23055073     1.04560
Cu2236     Cu  0.69959504  0.70280081  0.23324378     1.04330
C2237       C  0.69427852  0.73706271  0.29286461     0.92880
C2238       C  0.67549016  0.71741973  0.17076418     0.92020
C2239       C  0.62089686  0.68816517  0.24154108     0.84160
C2240       C  0.72661057  0.78129124  0.22209635     0.90430
O2241       O  0.79770758  0.56084327  0.18917044    -0.73320
O2242       O  0.80695048  0.56480791  0.28609319    -0.74300
O2243       O  0.86961574  0.61088742  0.23478920    -0.62920
O2244       O  0.74381783  0.53439087  0.24070065    -0.71330
O2245       O  0.73990335  0.47743858  0.24140342    -0.70880
O2246       O  0.81771619  0.05311190  0.23681760    -0.62140
O2247       O  0.80018279  0.50532351  0.28440735    -0.74650
O2248       O  0.79205342  0.50160537  0.19142742    -0.73430
Cu2249     Cu  0.80528320  0.56877798  0.23738363     1.04560
Cu2250     Cu  0.79864681  0.49934952  0.23777788     1.04330
C2251       C  0.79101769  0.52904004  0.17620860     0.92880
C2252       C  0.80164999  0.53355468  0.29956642     0.92020
C2253       C  0.85554763  0.57517459  0.23709822     0.84160
C2254       C  0.72350419  0.49731931  0.24418357     0.90430
O2255       O  0.96494024  0.78631389  0.01017613    -0.73320
O2256       O  0.96579948  0.68471721  0.01110998    -0.74300
O2257       O  0.96506145  0.73514735  0.05698288    -0.62920
O2258       O  0.96697128  0.73699107  0.46539933    -0.71330
O2259       O  0.53429469  0.77249867  0.46797933    -0.70880
O2260       O  0.53245804  0.76866771  0.05785753    -0.62140
O2261       O  0.53313918  0.71887832  0.01138877    -0.74650
O2262       O  0.53218309  0.82104048  0.01341509    -0.73430
Cu2263     Cu  0.96329648  0.73450054  0.01098738     1.04560
Cu2264     Cu  0.53527084  0.77134599  0.01281728     1.04330
C2265       C  0.99827898  0.81963656  0.01117481     0.92880
C2266       C  0.99945477  0.68569836  0.01058765     0.92020
C2267       C  0.99881120  0.75222925  0.07182899     0.84160
C2268       C  0.00142337  0.75568601  0.45236000     0.90430
C2269       C  0.83124347  0.85681989  0.21474295    -0.26690
C2270       C  0.83724909  0.85315742  0.24595523    -0.14770
C2271       C  0.82260256  0.81487892  0.25648879     0.35860
C2272       C  0.78748352  0.78437124  0.24254800    -0.26140
C2273       C  0.76939997  0.79394463  0.21871073    -0.15380
C2274       C  0.79416272  0.82803410  0.20176306     0.36950
N2275       N  0.77899723  0.83578283  0.17435010    -0.89630
H2276       H  0.84721455  0.88543759  0.20407488     0.18060
H2277       H  0.77110763  0.75628433  0.25382214     0.18050
N2278       N  0.83793992  0.80804326  0.28412415    -0.88660
H2279       H  0.79960511  0.84130666  0.15708651     0.35430
H2280       H  0.77827780  0.86124449  0.17756796     0.40530
H2281       H  0.83604057  0.82482717  0.30131442     0.40150
H2282       H  0.86868868  0.81823655  0.28105572     0.35040
C2283       C  0.87734646  0.01195650  0.27852683    -0.26690
C2284       C  0.86254932  0.98326201  0.25582839    -0.14770
C2285       C  0.86737976  0.99462899  0.22503139     0.35860
C2286       C  0.87756413  0.03288872  0.21774677    -0.26140
C2287       C  0.88101496  0.55819171  0.24092910    -0.15380
C2288       C  0.88772168  0.05029956  0.27101052     0.36950
N2289       N  0.89760006  0.07888145  0.29435320    -0.89630
H2290       H  0.87595414  0.00347370  0.30216654     0.18060
H2291       H  0.87506718  0.54016510  0.19432535     0.18050
N2292       N  0.85740825  0.96620675  0.20153599    -0.88660
H2293       H  0.89944208  0.06782229  0.31556823     0.35430
H2294       H  0.92659988  0.60284767  0.28984286     0.40530
H2295       H  0.87829758  0.95717749  0.20339830     0.40150
H2296       H  0.86192648  0.97932889  0.18014636     0.35040
C2297       C  0.53059071  0.78612590  0.15330809    -0.26690
C2298       C  0.00062445  0.75396812  0.16959016    -0.14770
C2299       C  0.96926797  0.72113613  0.15358637     0.35860
C2300       C  0.96892851  0.72156888  0.12169606    -0.26140
C2301       C  0.99939851  0.75349572  0.10541652    -0.15380
C2302       C  0.53053935  0.78622667  0.12143451     0.36950
N2303       N  0.56168077  0.81971795  0.10532367    -0.89630
H2304       H  0.55440444  0.81125675  0.16560774     0.18060
H2305       H  0.94487790  0.69645707  0.10954697     0.18050
N2306       N  0.93662564  0.68757056  0.16860152    -0.88660
H2307       H  0.58248562  0.84100739  0.12049880     0.35430
H2308       H  0.54761649  0.83230251  0.09350973     0.40530
H2309       H  0.93863414  0.69067586  0.19215444     0.40150
H2310       H  0.93907027  0.66341086  0.16369263     0.35040
C2311       C  0.53896518  0.76553555  0.37202868    -0.26690
C2312       C  0.00811551  0.76609441  0.35543544    -0.14770
C2313       C  0.97520881  0.76399758  0.37060485     0.35860
C2314       C  0.97283100  0.75926559  0.40231446    -0.26140
C2315       C  0.00374049  0.75857770  0.41899963    -0.15380
C2316       C  0.53765473  0.76274441  0.40375244     0.36950
N2317       N  0.57054036  0.76392231  0.42049085    -0.89630
H2318       H  0.56408248  0.76707323  0.36020288     0.18060
H2319       H  0.94730838  0.75704870  0.41410263     0.18050
N2320       N  0.94383589  0.76546299  0.35372531    -0.88660
H2321       H  0.59469271  0.77104754  0.40618215     0.35430
H2322       H  0.56006477  0.73580476  0.42902418     0.40530
H2323       H  0.95671480  0.79354126  0.34438043     0.40150
H2324       H  0.92096699  0.76188385  0.36823135     0.35040
C2325       C  0.65871544  0.85037937  0.24206395    -0.26690
C2326       C  0.63470925  0.82560282  0.26576619    -0.14770
C2327       C  0.65497102  0.82196188  0.29179093     0.35860
C2328       C  0.69784031  0.84160716  0.29280185    -0.26140
C2329       C  0.72178505  0.86588236  0.26894887    -0.15380
C2330       C  0.70169364  0.87008346  0.24329963     0.36950
N2331       N  0.72472399  0.89240870  0.21757324    -0.89630
H2332       H  0.64399477  0.85344284  0.22194403     0.18060
H2333       H  0.71262920  0.83784192  0.31257136     0.18050
N2334       N  0.63326974  0.79893481  0.31783224    -0.88660
H2335       H  0.71541721  0.87358206  0.19887026     0.35430
H2336       H  0.71738731  0.91358978  0.21278874     0.40530
H2337       H  0.60203584  0.78655618  0.31528574     0.40150
H2338       H  0.64221978  0.81784785  0.33646139     0.35040
C2339       C  0.65153744  0.51392256  0.27236314    -0.26690
C2340       C  0.67208076  0.52222996  0.30071329    -0.14770
C2341       C  0.68479930  0.49701117  0.31114435     0.35860
C2342       C  0.68761747  0.47274706  0.28992334    -0.26140
C2343       C  0.68406714  0.47919001  0.25883118    -0.15380
C2344       C  0.65895749  0.49338636  0.25048133     0.36950
N2345       N  0.64692377  0.49231724  0.21921222    -0.89630
H2346       H  0.63652684  0.52920334  0.26536068     0.18060
H2347       H  0.70299867  0.45771510  0.29684279     0.18050
N2348       N  0.69892679  0.49865741  0.34178122    -0.88660
H2349       H  0.62932762  0.50505847  0.21684788     0.35430
H2350       H  0.67308884  0.50950774  0.20646203     0.40530
H2351       H  0.69490189  0.01812561  0.35465247     0.40150
H2352       H  0.68045128  0.97093882  0.35143915     0.35040
C2353       C  0.63382365  0.63588168  0.30105556    -0.26690
C2354       C  0.65812006  0.62695525  0.28384878    -0.14770
C2355       C  0.65218355  0.62251132  0.25197902     0.35860
C2356       C  0.62552134  0.63138477  0.23784177    -0.26140
C2357       C  0.61019422  0.65036246  0.25432199    -0.15380
C2358       C  0.60968467  0.64800420  0.28629361     0.36950
N2359       N  0.58999741  0.66365096  0.30333884    -0.89630
H2360       H  0.63640505  0.63664583  0.32565129     0.18060
H2361       H  0.62464319  0.63202269  0.21318335     0.18050
N2362       N  0.67536470  0.61254823  0.23312555    -0.88660
H2363       H  0.59404847  0.66138467  0.32668106     0.35430
H2364       H  0.55881157  0.64610542  0.29879587     0.40530
H2365       H  0.70605872  0.63441860  0.23512136     0.40150
H2366       H  0.67178235  0.58616847  0.24060240     0.35040
C2367       C  0.80939800  0.65871354  0.25972633    -0.26690
C2368       C  0.79832883  0.65186901  0.29057558    -0.14770
C2369       C  0.82960993  0.66971448  0.31297178     0.35860
C2370       C  0.87053116  0.69108459  0.30414194    -0.26140
C2371       C  0.88167574  0.69730633  0.27349620    -0.15380
C2372       C  0.85066150  0.68168911  0.25097835     0.36950
N2373       N  0.86102946  0.68956899  0.21944085    -0.89630
H2374       H  0.78566991  0.64617074  0.24239828     0.18060
H2375       H  0.89403703  0.70335149  0.32158052     0.18050
N2376       N  0.82126790  0.66850612  0.34477196    -0.88660
H2377       H  0.83475027  0.67657221  0.20579169     0.35430
H2378       H  0.87697495  0.67608760  0.21386919     0.40530
H2379       H  0.79021647  0.65148025  0.34907001     0.40150
H2380       H  0.83531415  0.65556180  0.35601235     0.35040
C2381       C  0.76729020  0.54748617  0.12961326    -0.26690
C2382       C  0.77957246  0.52334346  0.14326933    -0.14770
C2383       C  0.77761133  0.49287578  0.12580790     0.35860
C2384       C  0.76396283  0.48775007  0.09534206    -0.26140
C2385       C  0.75326803  0.51291358  0.08156326    -0.15380
C2386       C  0.75354215  0.54231854  0.09936208     0.36950
N2387       N  0.73974951  0.56720267  0.08774702    -0.89630
H2388       H  0.76738186  0.57028070  0.14272918     0.18060
H2389       H  0.76392734  0.46534167  0.08175949     0.18050
N2390       N  0.79077658  0.46810399  0.13854290    -0.88660
H2391       H  0.71667347  0.06378590  0.10194649     0.35430
H2392       H  0.72579990  0.05787191  0.06643416     0.40530
H2393       H  0.82212962  0.48573547  0.14223430     0.40150
H2394       H  0.78639062  0.44665039  0.12294729     0.35040
C2395       C  0.76609771  0.98935474  0.37886139    -0.26690
C2396       C  0.77322660  0.52223558  0.39545568    -0.14770
C2397       C  0.79303057  0.55917482  0.38078427     0.35520
C2398       C  0.80350503  0.56229783  0.35005421    -0.26140
C2399       C  0.79510983  0.52934238  0.33309912    -0.15380
C2400       C  0.77688258  0.49251814  0.34804478     0.36950
N2401       N  0.76803203  0.95791980  0.33197335    -0.89630
H2402       H  0.75182586  0.96085712  0.38973234     0.18060
H2403       H  0.81786542  0.59083346  0.33928390     0.18050
N2404       N  0.80229700  0.59380435  0.39692206    -0.88660
H2405       H  0.73686414  0.93746189  0.33342514     0.35430
H2406       H  0.78341882  0.94606600  0.34295524     0.40530
H2407       H  0.78652310  0.60552540  0.38644597     0.40150
H2408       H  0.83354930  0.61399747  0.39564751     0.35040
C2409       C  0.68114793  0.74799045  0.08763050    -0.26690
C2410       C  0.71242103  0.74323981  0.07674450    -0.14770
C2411       C  0.72850289  0.72630228  0.09628994     0.35860
C2412       C  0.71430012  0.71635552  0.12629830    -0.26140
C2413       C  0.68384950  0.72223720  0.13744214    -0.15380
C2414       C  0.66658820  0.73761275  0.11741423     0.36950
N2415       N  0.63446574  0.74294191  0.12714425    -0.89630
H2416       H  0.66749930  0.75978357  0.07272292     0.18060
H2417       H  0.72805369  0.70475254  0.14128657     0.18050
N2418       N  0.75970085  0.71990667  0.08605474    -0.88660
H2419       H  0.62009219  0.74707621  0.10838296     0.35430
H2420       H  0.64795512  0.76910502  0.13945963     0.40530
H2421       H  0.74620369  0.69680086  0.07048149     0.40150
H2422       H  0.77051658  0.71035219  0.10400092     0.35040
C2423       C  0.74408244  0.74902014  0.37150918    -0.26690
C2424       C  0.71829318  0.75420869  0.39022185    -0.14770
C2425       C  0.68345220  0.75200069  0.37676855     0.35860
C2426       C  0.67707685  0.74758593  0.34501428    -0.26140
C2427       C  0.70335036  0.74329466  0.32623461    -0.15380
C2428       C  0.73674096  0.74314597  0.33996170     0.36950
N2429       N  0.76362286  0.73716919  0.32212084    -0.89630
H2430       H  0.77019253  0.74941290  0.38138252     0.18060
H2431       H  0.65029110  0.74563100  0.33500936     0.18050
N2432       N  0.65351933  0.75244663  0.39538218    -0.88660
H2433       H  0.76270445  0.71220507  0.33050341     0.35430
H2434       H  0.79307512  0.76083660  0.32599590     0.40530
H2435       H  0.64083698  0.72741937  0.40914555     0.40150
H2436       H  0.62971036  0.74961723  0.38175089     0.35040
C2437       C  0.61458043  0.62672216  0.96296331    -0.26690
C2438       C  0.62737673  0.65289250  0.48732359    -0.14770
C2439       C  0.61189643  0.63952573  0.51664788     0.35860
C2440       C  0.58307744  0.60023931  0.52100425    -0.26140
C2441       C  0.56911409  0.57428453  0.49645964    -0.15380
C2442       C  0.58491613  0.58736759  0.96726200     0.36950
N2443       N  0.56954287  0.56114229  0.94186674    -0.89630
H2444       H  0.62762527  0.63690814  0.94066214     0.18060
H2445       H  0.57005988  0.59013414  0.54332179     0.18050
N2446       N  0.62578359  0.66499968  0.54245797    -0.88660
H2447       H  0.59394144  0.56109292  0.93200467     0.35430
H2448       H  0.55776178  0.57218430  0.92583092     0.40530
H2449       H  0.62124258  0.68812545  0.53798648     0.40150
H2450       H  0.65684897  0.67621873  0.54531147     0.35040
C2451       C  0.85995563  0.86924561  0.51818197    -0.26690
C2452       C  0.83799130  0.86281596  0.49091632    -0.14770
C2453       C  0.85555329  0.88871450  0.96637841     0.35860
C2454       C  0.89525772  0.92090055  0.96959219    -0.26140
C2455       C  0.91735561  0.92779467  0.49696445    -0.15380
C2456       C  0.89923914  0.90190745  0.52178697     0.36950
N2457       N  0.91892574  0.90835123  0.55105576    -0.89630
H2458       H  0.84622074  0.84886805  0.53694538     0.18060
H2459       H  0.90915926  0.94090627  0.95069081     0.18050
N2460       N  0.83324709  0.88188638  0.93827471    -0.88660
H2461       H  0.92443953  0.88571573  0.55483776     0.35430
H2462       H  0.94698643  0.93461369  0.55186551     0.40530
H2463       H  0.82837381  0.85580237  0.92900524     0.40150
H2464       H  0.85053428  0.90405225  0.92256573     0.35040
C2465       C  0.98858618  0.62306866  0.03376530    -0.26690
C2466       C  0.99912152  0.64808716  0.00843735    -0.14770
C2467       C  0.50812406  0.63634802  0.48099273     0.35860
C2468       C  0.50620412  0.60008288  0.47943260    -0.26140
C2469       C  0.99609361  0.57506423  0.00485267    -0.15380
C2470       C  0.98776497  0.58736792  0.03258438     0.36950
N2471       N  0.97890849  0.56482989  0.06014127    -0.89630
H2472       H  0.98163452  0.63171050  0.05496565     0.18060
H2473       H  0.51268899  0.59122124  0.45817026     0.18050
N2474       N  0.51895411  0.66122999  0.45466677    -0.88660
H2475       H  0.00180778  0.58198817  0.07600960     0.35430
H2476       H  0.98012505  0.53968615  0.05706152     0.40530
H2477       H  0.49369892  0.66288281  0.44826240     0.40150
H2478       H  0.52510217  0.64876444  0.43636218     0.35040
C2479       C  0.51099413  0.91938035  0.02845991    -0.26690
C2480       C  0.99417852  0.92632847  0.00221161    -0.14770
C2481       C  0.97968170  0.89802601  0.47852941     0.35860
C2482       C  0.98029245  0.86327579  0.48251646    -0.26140
C2483       C  0.99738065  0.85662864  0.00865822    -0.15380
C2484       C  0.51352618  0.88549218  0.03164432     0.36950
N2485       N  0.53159300  0.87991834  0.05851717    -0.89630
H2486       H  0.52265023  0.94088867  0.04655206     0.18060
H2487       H  0.96870976  0.84184676  0.46434645     0.18050
N2488       N  0.96634490  0.90429400  0.44949898    -0.88660
H2489       H  0.54068177  0.90303685  0.07374154     0.35430
H2490       H  0.55811252  0.88113976  0.05197738     0.40530
H2491       H  0.97020450  0.93204347  0.44791627     0.40150
H2492       H  0.93532900  0.88349424  0.44707080     0.35040
C2493       C  0.57836040  0.99098717  0.46908804    -0.26690
C2494       C  0.57019016  0.50242063  0.99676721    -0.14770
C2495       C  0.60013540  0.51769761  0.02015639     0.35860
C2496       C  0.63807927  0.52279242  0.01467037    -0.26140
C2497       C  0.64637364  0.51178912  0.98690902    -0.15380
C2498       C  0.61606002  0.99523375  0.46388106     0.36950
N2499       N  0.62273977  0.98365641  0.43478537    -0.89630
H2500       H  0.55545847  0.97943347  0.45112131     0.18060
H2501       H  0.66084512  0.53406667  0.03274448     0.18050
N2502       N  0.59271870  0.52683483  0.04997264    -0.88660
H2503       H  0.60366444  0.95322289  0.43311215     0.35430
H2504       H  0.65251880  0.99018607  0.43265399     0.40530
H2505       H  0.56296239  0.52034291  0.05214046     0.40150
H2506       H  0.61209263  0.55696318  0.05337748     0.35040
C2507       C  0.89787062  0.49356792  0.02306742    -0.26690
C2508       C  0.92149664  0.50156313  0.99720140    -0.14770
C2509       C  0.91200348  0.01440848  0.46993032     0.35860
C2510       C  0.87956733  0.02027259  0.46968669    -0.26140
C2511       C  0.85620579  0.51246183  0.99561724    -0.15380
C2512       C  0.86504654  0.49873161  0.02245187     0.36950
N2513       N  0.84141955  0.49030733  0.04932966    -0.89630
H2514       H  0.90547597  0.48394601  0.04389571     0.18060
H2515       H  0.87178551  0.02985279  0.44890420     0.18050
N2516       N  0.93452015  0.02187157  0.44236102    -0.88660
H2517       H  0.81152113  0.46820604  0.04425185     0.35430
H2518       H  0.84159260  0.51555011  0.05544911     0.40530
H2519       H  0.95738536  0.01551664  0.44478070     0.40150
H2520       H  0.91442759  0.00269535  0.42574868     0.35040
C2521       C  0.99549081  0.53673547  0.50210700     0.01910
C2522       C  0.95873983  0.00063488  0.50018341     0.01910
C2523       C  0.95749734  0.96453931  0.49953205     0.01910
C2524       C  0.49408241  0.96417684  0.50016315     0.01910
C2525       C  0.53124400  0.50080600  0.49960675     0.01910
C2526       C  0.53152549  0.53640891  0.50015363     0.01910
O2527       O  0.74333286  0.73994212  0.53007587    -0.73320
O2528       O  0.74686137  0.74661140  0.93741682    -0.74300
O2529       O  0.79860135  0.79461345  0.98687578    -0.62920
O2530       O  0.69657421  0.69332891  0.98151587    -0.71330
O2531       O  0.66062285  0.72209544  0.98440610    -0.70880
O2532       O  0.76570381  0.82647049  0.98552282    -0.62140
O2533       O  0.71086137  0.77505081  0.93913549    -0.74650
O2534       O  0.71161651  0.77262520  0.52964780    -0.73430
Cu2535     Cu  0.74798263  0.74300959  0.98383017     1.04560
Cu2536     Cu  0.71135958  0.77550829  0.98453766     1.04330
C2537       C  0.72414936  0.75313051  0.54416418     0.92880
C2538       C  0.72627622  0.75929284  0.92378163     0.92020
C2539       C  0.79874420  0.82638829  0.98747263     0.84160
C2540       C  0.66289718  0.69141893  0.98356794     0.90430
O2541       O  0.73174609  0.98037864  0.53311119    -0.73320
O2542       O  0.74218889  0.98457391  0.94110160    -0.74300
O2543       O  0.78601273  0.98159719  0.49138411    -0.62920
O2544       O  0.68412905  0.98126253  0.48305286    -0.71330
O2545       O  0.71842314  0.54624722  0.48678160    -0.70880
O2546       O  0.82207660  0.54686979  0.49195736    -0.62140
O2547       O  0.77503129  0.54920597  0.94411362    -0.74650
O2548       O  0.76794340  0.54542336  0.53406046    -0.73430
Cu2549     Cu  0.73446877  0.97961501  0.48699045     1.04560
Cu2550     Cu  0.77182199  0.54918221  0.48914686     1.04330
C2551       C  0.74984521  0.51265708  0.54800235     0.92880
C2552       C  0.76240467  0.51829495  0.92832820     0.92020
C2553       C  0.81979567  0.51393564  0.49301842     0.84160
C2554       C  0.68488646  0.51336173  0.48475760     0.90430
C2555       C  0.68675175  0.61867633  0.79908905     0.02750
C2556       C  0.72878007  0.64243197  0.79388823    -0.13400
C2557       C  0.75419583  0.62752571  0.79861733     0.00250
C2558       C  0.73595140  0.58760704  0.80666767    -0.11920
C2559       C  0.69334984  0.56366791  0.81059026     0.02740
C2560       C  0.67029669  0.58104149  0.81065462    -0.11340
H2561       H  0.74106827  0.67126031  0.78392058     0.08340
H2562       H  0.75388862  0.57421051  0.80630827     0.05870
H2563       H  0.63751815  0.56246010  0.81255498     0.05720
O2564       O  0.00844657  0.79227428  0.80671913    -0.73320
O2565       O  0.00480531  0.78562808  0.71596857    -0.74300
O2566       O  0.94484123  0.75731423  0.76297653    -0.62920
O2567       O  0.56956220  0.82077179  0.76078401    -0.71330
O2568       O  0.56941538  0.76540137  0.76319762    -0.70880
O2569       O  0.94570791  0.70246532  0.76635836    -0.62140
O2570       O  0.00417923  0.72991403  0.71863478    -0.74650
O2571       O  0.01022554  0.73774083  0.80933042    -0.73430
Cu2572     Cu  0.00700601  0.79098978  0.76129532     1.04560
Cu2573     Cu  0.00748134  0.73204752  0.76425476     1.04330
C2574       C  0.00915116  0.76555143  0.82224187     0.92880
C2575       C  0.00304842  0.75639257  0.70300617     0.92020
C2576       C  0.92595174  0.72001113  0.76636681     0.84160
C2577       C  0.58909355  0.80294986  0.76271553     0.90430
C2578       C  0.83621030  0.94166584  0.76401857     0.02750
C2579       C  0.85209912  0.91755086  0.76301906    -0.13400
C2580       C  0.82611621  0.87699976  0.76413103     0.00250
C2581       C  0.78441783  0.86091065  0.77090197    -0.11920
C2582       C  0.76732797  0.88437970  0.77015442     0.02740
C2583       C  0.79376351  0.92492156  0.76658909    -0.11340
H2584       H  0.88368773  0.92997928  0.75710887     0.08340
H2585       H  0.76404583  0.82951167  0.77227501     0.05870
H2586       H  0.78072164  0.94282442  0.76440755     0.05720
O2587       O  0.67600756  0.75308747  0.77906085    -0.73320
O2588       O  0.65716051  0.73380672  0.68284444    -0.74300
O2589       O  0.59846380  0.70145012  0.73980718    -0.62920
O2590       O  0.71341879  0.80349410  0.72060603    -0.71330
O2591       O  0.69987470  0.74771225  0.72910131    -0.70880
O2592       O  0.65628965  0.71149265  0.73351485    -0.62140
O2593       O  0.69122804  0.70084456  0.68695758    -0.74650
O2594       O  0.70473927  0.71527439  0.77878623    -0.73430
Cu2595     Cu  0.65989331  0.74858924  0.73054917     1.04560
Cu2596     Cu  0.69959356  0.70280532  0.73324259     1.04330
C2597       C  0.69427283  0.73706334  0.79286397     0.92880
C2598       C  0.67549311  0.71742747  0.67076252     0.92020
C2599       C  0.62089482  0.68816942  0.74153710     0.84160
C2600       C  0.72660885  0.78129586  0.72209695     0.90430
O2601       O  0.79771152  0.56084755  0.68917125    -0.73320
O2602       O  0.80694834  0.56480932  0.78609424    -0.74300
O2603       O  0.86961689  0.61089044  0.73479244    -0.62920
O2604       O  0.74381852  0.53439349  0.74069941    -0.71330
O2605       O  0.73990443  0.47744139  0.74140241    -0.70880
O2606       O  0.81772737  0.05311575  0.73681963    -0.62140
O2607       O  0.80018119  0.50532517  0.78440825    -0.74650
O2608       O  0.79205737  0.50160964  0.69142813    -0.73430
Cu2609     Cu  0.80528415  0.56878083  0.73738464     1.04560
Cu2610     Cu  0.79864811  0.49935248  0.73777880     1.04330
C2611       C  0.79102235  0.52904465  0.67620925     0.92880
C2612       C  0.80164710  0.53355572  0.79956728     0.92020
C2613       C  0.85554870  0.57517753  0.73710076     0.84160
C2614       C  0.72350480  0.49732182  0.74418161     0.90430
O2615       O  0.96495352  0.78632228  0.51017686    -0.73320
O2616       O  0.96581220  0.68472581  0.51110805    -0.74300
O2617       O  0.96507320  0.73515354  0.55698206    -0.62920
O2618       O  0.96695748  0.73698052  0.96539974    -0.71330
O2619       O  0.53428345  0.77249113  0.96797930    -0.70880
O2620       O  0.53246842  0.76867445  0.55785802    -0.62140
O2621       O  0.53314972  0.71888553  0.51138890    -0.74650
O2622       O  0.53219496  0.82104791  0.51341553    -0.73430
Cu2623     Cu  0.96330942  0.73450901  0.51098674     1.04560
Cu2624     Cu  0.53528189  0.77135322  0.51281756     1.04330
C2625       C  0.99829236  0.81964477  0.51117596     0.92880
C2626       C  0.99946745  0.68570688  0.51058604     0.92020
C2627       C  0.99882245  0.75223448  0.57182878     0.84160
C2628       C  0.00140952  0.75567504  0.95236026     0.90430
C2629       C  0.83124405  0.85682293  0.71474864    -0.26690
C2630       C  0.83724799  0.85315549  0.74596037    -0.14770
C2631       C  0.82259981  0.81487509  0.75648983     0.35860
C2632       C  0.78747996  0.78437058  0.74254736    -0.26140
C2633       C  0.76939822  0.79394887  0.71871187    -0.15380
C2634       C  0.79416284  0.82804062  0.70176707     0.36950
N2635       N  0.77899920  0.83579491  0.67435569    -0.89630
H2636       H  0.84721717  0.88544198  0.70408297     0.18060
H2637       H  0.77110285  0.75628189  0.75381883     0.18050
N2638       N  0.83793767  0.80803414  0.78412260    -0.88660
H2639       H  0.79960718  0.84132028  0.65709181     0.35430
H2640       H  0.77828163  0.86125706  0.67757663     0.40530
H2641       H  0.83604176  0.82481733  0.80131523     0.40150
H2642       H  0.86868561  0.81822546  0.78105211     0.35040
C2643       C  0.87734505  0.01195217  0.77853845    -0.26690
C2644       C  0.86254947  0.98325785  0.75583995    -0.14770
C2645       C  0.86738396  0.99462502  0.72504286     0.35860
C2646       C  0.87757250  0.03288567  0.71775744    -0.26140
C2647       C  0.88101587  0.55819447  0.74093159    -0.15380
C2648       C  0.88772388  0.05029603  0.77102132     0.36950
N2649       N  0.89760081  0.07887812  0.79436353    -0.89630
H2650       H  0.87594927  0.00346900  0.80217837     0.18060
H2651       H  0.87507331  0.54017366  0.69432666     0.18050
N2652       N  0.85741255  0.96620243  0.70154778    -0.88660
H2653       H  0.89943868  0.06781811  0.81557930     0.35430
H2654       H  0.92659569  0.60284455  0.78984913     0.40530
H2655       H  0.87830191  0.95717329  0.70341064     0.40150
H2656       H  0.86193068  0.97932398  0.68015790     0.35040
C2657       C  0.53059823  0.78612937  0.65330934    -0.26690
C2658       C  0.00062931  0.75396598  0.66959011    -0.14770
C2659       C  0.96927288  0.72113600  0.65358453     0.35860
C2660       C  0.96893607  0.72157095  0.62169424    -0.26140
C2661       C  0.99940825  0.75349830  0.60541641    -0.15380
C2662       C  0.53054921  0.78623086  0.62143575     0.36950
N2663       N  0.56169402  0.81972102  0.60532603    -0.89630
H2664       H  0.55441283  0.81125866  0.66560986     0.18060
H2665       H  0.94488543  0.69646066  0.60954381     0.18050
N2666       N  0.93662781  0.68757060  0.66859781    -0.88660
H2667       H  0.58249924  0.84100893  0.62050190     0.35430
H2668       H  0.54763315  0.83230847  0.59351140     0.40530
H2669       H  0.93863389  0.69067466  0.69215084     0.40150
H2670       H  0.93907109  0.66341012  0.66368901     0.35040
C2671       C  0.53895787  0.76553176  0.87202938    -0.26690
C2672       C  0.00810477  0.76608159  0.85543573    -0.14770
C2673       C  0.97519710  0.76398426  0.87060403     0.35860
C2674       C  0.97281780  0.75925214  0.90231362    -0.26140
C2675       C  0.00372698  0.75856505  0.91899986    -0.15380
C2676       C  0.53764573  0.76273860  0.90375299     0.36950
N2677       N  0.57053116  0.76391669  0.92049190    -0.89630
H2678       H  0.56407655  0.76707162  0.86020403     0.18060
H2679       H  0.94729459  0.75703510  0.91410097     0.18050
N2680       N  0.94382505  0.76544992  0.85372343    -0.88660
H2681       H  0.59468433  0.77104299  0.90618371     0.35430
H2682       H  0.56005585  0.73579894  0.92902466     0.40530
H2683       H  0.95670444  0.79352830  0.84437866     0.40150
H2684       H  0.92095538  0.76187057  0.86822871     0.35040
C2685       C  0.65871516  0.85037900  0.74207013    -0.26690
C2686       C  0.63470746  0.82559907  0.76577036    -0.14770
C2687       C  0.65496767  0.82195454  0.79179451     0.35860
C2688       C  0.69783700  0.84159989  0.79280677    -0.26140
C2689       C  0.72178332  0.86587863  0.76895576    -0.15380
C2690       C  0.70169333  0.87008301  0.74330707     0.36950
N2691       N  0.72472504  0.89241118  0.71758215    -0.89630
H2692       H  0.64399572  0.85344531  0.72195067     0.18060
H2693       H  0.71262466  0.83783185  0.81257577     0.18050
N2694       N  0.63326477  0.79892384  0.81783398    -0.88660
H2695       H  0.71541971  0.87358647  0.69887802     0.35430
H2696       H  0.71738773  0.91359201  0.71279876     0.40530
H2697       H  0.60203095  0.78654514  0.81528676     0.40150
H2698       H  0.64221358  0.81783423  0.83646475     0.35040
C2699       C  0.65153518  0.51392367  0.77235678    -0.26690
C2700       C  0.67207637  0.52223073  0.80070780    -0.14770
C2701       C  0.68479452  0.49701206  0.81114000     0.35860
C2702       C  0.68761428  0.47274823  0.78991966    -0.26140
C2703       C  0.68406640  0.47919174  0.75882724    -0.15380
C2704       C  0.65895713  0.49338795  0.75047578     0.36950
N2705       N  0.64692586  0.49231931  0.71920607    -0.89630
H2706       H  0.63652518  0.52920462  0.76535318     0.18060
H2707       H  0.70299517  0.45771635  0.79684016     0.18050
N2708       N  0.69892063  0.49865854  0.84177737    -0.88660
H2709       H  0.62932971  0.50506041  0.71684054     0.35430
H2710       H  0.67309195  0.50951016  0.70645699     0.40530
H2711       H  0.69488182  0.01809916  0.85464931     0.40150
H2712       H  0.68043034  0.97091317  0.85142570     0.35040
C2713       C  0.63381946  0.63588276  0.80104990    -0.26690
C2714       C  0.65811634  0.62695714  0.78384289    -0.14770
C2715       C  0.65218056  0.62251457  0.75197302     0.35860
C2716       C  0.62551904  0.63138906  0.73783596    -0.26140
C2717       C  0.61019151  0.65036596  0.75431673    -0.15380
C2718       C  0.60968092  0.64800602  0.78628827     0.36950
N2719       N  0.58999324  0.66365202  0.80333391    -0.89630
H2720       H  0.63640019  0.63664574  0.82564565     0.18060
H2721       H  0.62464159  0.63202820  0.71317755     0.18050
N2722       N  0.67536156  0.61255150  0.73311938    -0.88660
H2723       H  0.59404349  0.66138443  0.82667607     0.35430
H2724       H  0.55880753  0.64610684  0.79879030     0.40530
H2725       H  0.70605574  0.63442123  0.73511584     0.40150
H2726       H  0.67177816  0.58617108  0.74059562     0.35040
C2727       C  0.80939436  0.65871472  0.75972187    -0.26690
C2728       C  0.79832460  0.65186872  0.79057101    -0.14770
C2729       C  0.82960552  0.66971069  0.81296760     0.35860
C2730       C  0.87052691  0.69107857  0.80413814    -0.26140
C2731       C  0.88167206  0.69730191  0.77349253    -0.15380
C2732       C  0.85065823  0.68168832  0.75097435     0.36950
N2733       N  0.86102704  0.68956959  0.71943706    -0.89630
H2734       H  0.78566650  0.64617438  0.74239356     0.18060
H2735       H  0.89403253  0.70334247  0.82157694     0.18050
N2736       N  0.82126328  0.66850134  0.84476785    -0.88660
H2737       H  0.83474811  0.67657525  0.70578763     0.35430
H2738       H  0.87697079  0.67608669  0.71386455     0.40530
H2739       H  0.79021172  0.65147651  0.84906567     0.40150
H2740       H  0.83530817  0.65555545  0.85600785     0.35040
C2741       C  0.76729721  0.54749194  0.62961319    -0.26690
C2742       C  0.77957865  0.52334881  0.64326968    -0.14770
C2743       C  0.77761787  0.49288121  0.62580836     0.35860
C2744       C  0.76397047  0.48775595  0.59534227    -0.26140
C2745       C  0.75327617  0.51291964  0.58156315    -0.15380
C2746       C  0.75355008  0.54232465  0.59936177     0.36950
N2747       N  0.73975796  0.56720904  0.58774632    -0.89630
H2748       H  0.76738864  0.57028645  0.64272899     0.18060
H2749       H  0.76393538  0.46534766  0.58175981     0.18050
N2750       N  0.79078240  0.46810907  0.63854373    -0.88660
H2751       H  0.71669308  0.06379560  0.60194875     0.35430
H2752       H  0.72581609  0.05787930  0.56643609     0.40530
H2753       H  0.82213539  0.48574035  0.64223535     0.40150
H2754       H  0.78639650  0.44665539  0.62294824     0.35040
C2755       C  0.76608844  0.98935452  0.87886039    -0.26690
C2756       C  0.77321978  0.52223419  0.89545588    -0.14770
C2757       C  0.79302531  0.55917395  0.88078517     0.35520
C2758       C  0.80350036  0.56229748  0.85005521    -0.26140
C2759       C  0.79510482  0.52934230  0.83309968    -0.15380
C2760       C  0.77687580  0.49251749  0.84804458     0.36950
N2761       N  0.76802581  0.95792069  0.83197284    -0.89630
H2762       H  0.75181646  0.96085672  0.88973104     0.18060
H2763       H  0.81786201  0.59083334  0.83928532     0.18050
N2764       N  0.80229307  0.59380350  0.89692360    -0.88660
H2765       H  0.73685752  0.93746348  0.83342278     0.35430
H2766       H  0.78341081  0.94606574  0.84295580     0.40530
H2767       H  0.78652031  0.60552593  0.88644781     0.40150
H2768       H  0.83354559  0.61399582  0.89564920     0.35040
C2769       C  0.68115527  0.74799844  0.58762824    -0.26690
C2770       C  0.71242983  0.74324888  0.57674393    -0.14770
C2771       C  0.72851192  0.72631295  0.59629075     0.35860
C2772       C  0.71430751  0.71636620  0.62629868    -0.26140
C2773       C  0.68385524  0.72224659  0.63744088    -0.15380
C2774       C  0.66659432  0.73762139  0.61741176     0.36950
N2775       N  0.63447040  0.74294949  0.62713998    -0.89630
H2776       H  0.66750656  0.75979031  0.57271943     0.18060
H2777       H  0.72806103  0.70476408  0.64128792     0.18050
N2778       N  0.75971174  0.71991899  0.58605736    -0.88660
H2779       H  0.62010286  0.74709124  0.60837837     0.35430
H2780       H  0.64795748  0.76910862  0.63946039     0.40530
H2781       H  0.74621637  0.69681282  0.57048438     0.40150
H2782       H  0.77052737  0.71036572  0.60400445     0.35040
C2783       C  0.74407363  0.74901810  0.87150935    -0.26690
C2784       C  0.71828233  0.75420367  0.89022201    -0.14770
C2785       C  0.68344038  0.75199346  0.87676857     0.35860
C2786       C  0.67706618  0.74757990  0.84501413    -0.26140
C2787       C  0.70334248  0.74329298  0.82623435    -0.15380
C2788       C  0.73673360  0.74314555  0.83996166     0.36950
N2789       N  0.76361731  0.73717134  0.82212084    -0.89630
H2790       H  0.77018431  0.74941211  0.88138286     0.18060
H2791       H  0.65027919  0.74562213  0.83500911     0.18050
N2792       N  0.65350552  0.75243584  0.89538221    -0.88660
H2793       H  0.76269890  0.71220663  0.83050198     0.35430
H2794       H  0.79306901  0.76083874  0.82599771     0.40530
H2795       H  0.64082474  0.72740817  0.90914504     0.40150
H2796       H  0.62969586  0.74960494  0.88175090     0.35040
C2797       C  0.61459062  0.62672979  0.46296315    -0.26690
C2798       C  0.62736653  0.65288476  0.98732379    -0.14770
C2799       C  0.61188620  0.63951810  0.01664808     0.35860
C2800       C  0.58306713  0.60023175  0.02100442    -0.26140
C2801       C  0.56910384  0.57427707  0.99645978    -0.15380
C2802       C  0.58492639  0.58737512  0.46726186     0.36950
N2803       N  0.56955328  0.56114979  0.44186663    -0.89630
H2804       H  0.62763550  0.63691574  0.44066199     0.18060
H2805       H  0.57004951  0.59012657  0.04332194     0.18050
N2806       N  0.62577340  0.66499204  0.04245818    -0.88660
H2807       H  0.59395192  0.56110049  0.43200464     0.35430
H2808       H  0.55777218  0.57219172  0.42583074     0.40530
H2809       H  0.62123250  0.68811788  0.03798672     0.40150
H2810       H  0.65683876  0.67621097  0.04531168     0.35040
C2811       C  0.85994306  0.86923925  0.01818215    -0.26690
C2812       C  0.83797836  0.86280944  0.99091668    -0.14770
C2813       C  0.85556688  0.88872098  0.46637809     0.35860
C2814       C  0.89527139  0.92090691  0.46959217    -0.26140
C2815       C  0.91734244  0.92778830  0.99696420    -0.15380
C2816       C  0.89922650  0.90190119  0.02178685     0.36950
N2817       N  0.91891364  0.90834509  0.05105543    -0.89630
H2818       H  0.84620858  0.84886164  0.03694558     0.18060
H2819       H  0.90917329  0.94091270  0.45069088     0.18050
N2820       N  0.83326118  0.88189303  0.43827417    -0.88660
H2821       H  0.92442763  0.88570969  0.05483722     0.35430
H2822       H  0.94697427  0.93460763  0.05186499     0.40530
H2823       H  0.82838777  0.85580891  0.42900484     0.40150
H2824       H  0.85054878  0.90405883  0.42256524     0.35040
C2825       C  0.98859845  0.62307740  0.53376367    -0.26690
C2826       C  0.99913398  0.64809578  0.50843567    -0.14770
C2827       C  0.50811390  0.63634063  0.98099274     0.35860
C2828       C  0.50619388  0.60007541  0.97943250    -0.26140
C2829       C  0.99610518  0.57507270  0.50485105    -0.15380
C2830       C  0.98777685  0.58737655  0.53258279     0.36950
N2831       N  0.97892034  0.56483859  0.56013972    -0.89630
H2832       H  0.98164696  0.63171943  0.55496399     0.18060
H2833       H  0.51267883  0.59121390  0.95817013     0.18050
N2834       N  0.51894401  0.66122269  0.95466684    -0.88660
H2835       H  0.00181972  0.58199684  0.57600800     0.35430
H2836       H  0.98013673  0.53969475  0.55706003     0.40530
H2837       H  0.49368885  0.66287559  0.94826250     0.40150
H2838       H  0.52509204  0.64875718  0.93636221     0.35040
C2839       C  0.51100700  0.91938827  0.52846014    -0.26690
C2840       C  0.99419222  0.92633637  0.50221261    -0.14770
C2841       C  0.97966677  0.89801748  0.97852878     0.35860
C2842       C  0.98027747  0.86326714  0.98251580    -0.26140
C2843       C  0.99739426  0.85663678  0.50865943    -0.15380
C2844       C  0.51353823  0.88549972  0.53164488     0.36950
N2845       N  0.53160322  0.87992485  0.55851839    -0.89630
H2846       H  0.52266244  0.94089632  0.54655248     0.18060
H2847       H  0.96869379  0.84183768  0.96434607     0.18050
N2848       N  0.96632888  0.90428496  0.94949864    -0.88660
H2849       H  0.54069167  0.90304319  0.57374286     0.35430
H2850       H  0.55812276  0.88114568  0.55197953     0.40530
H2851       H  0.97018887  0.93203457  0.94791579     0.40150
H2852       H  0.93531282  0.88348542  0.94707124     0.35040
C2853       C  0.57834681  0.99097940  0.96908800    -0.26690
C2854       C  0.57019934  0.50242720  0.49676694    -0.14770
C2855       C  0.60014471  0.51770379  0.52015600     0.35860
C2856       C  0.63808800  0.52279735  0.51466997    -0.26140
C2857       C  0.64638163  0.51179318  0.48690871    -0.15380
C2858       C  0.61604700  0.99522744  0.96388053     0.36950
N2859       N  0.62272701  0.98365097  0.93478456    -0.89630
H2860       H  0.55544472  0.97942545  0.95112137     0.18060
H2861       H  0.66085401  0.53407143  0.53274396     0.18050
N2862       N  0.59272868  0.52684183  0.54997218    -0.88660
H2863       H  0.60365263  0.95321736  0.93311120     0.35430
H2864       H  0.65250641  0.99018181  0.93265281     0.40530
H2865       H  0.56297265  0.52035067  0.55214012     0.40150
H2866       H  0.61210324  0.55697017  0.55337672     0.35040
C2867       C  0.89788142  0.49357602  0.52306725    -0.26690
C2868       C  0.92150746  0.50157199  0.49720111    -0.14770
C2869       C  0.91199151  0.01440286  0.96992949     0.35860
C2870       C  0.87955592  0.02026793  0.96968577    -0.26140
C2871       C  0.85621455  0.51246754  0.49561724    -0.15380
C2872       C  0.86505628  0.49873808  0.52245184     0.36950
N2873       N  0.84142928  0.49031305  0.54932972    -0.89630
H2874       H  0.90548737  0.48395445  0.54389545     0.18060
H2875       H  0.87177415  0.02984784  0.94890310     0.18050
N2876       N  0.93450770  0.02186484  0.94236008    -0.88660
H2877       H  0.81153110  0.46821104  0.54425205     0.35430
H2878       H  0.84160126  0.51555528  0.55544921     0.40530
H2879       H  0.95737247  0.01550932  0.94477984     0.40150
H2880       H  0.91441467  0.00268849  0.92574800     0.35040
loop_ 
_geom_bond_atom_site_label_1 
_geom_bond_atom_site_label_2 
_geom_bond_distance 
_geom_bond_site_symmetry_2 
_ccdc_geom_bond_type 
C1          C309   1.529       .  S
C1          C722   1.400       .  A
C1         C1446   1.403       .  A
C2         C1068   1.462   1_554  S
C2            C3   1.422   1_554  A
C2          C721   1.400       .  A
C3          C655   1.480       .  S
C3         C1444   1.421   1_556  A
C4         C1760   1.520       .  S
C4         C1443   1.421   1_554  A
C4          C725   1.417   1_654  A
C5          C334   1.480       .  S
C5            C6   1.421   1_556  A
C5          C724   1.417   1_446  A
C6          C641   1.460   1_554  S
C6         C1441   1.403   1_455  A
O7           C17   1.283       .  A
O7         Cu375   2.041   1_554  S
O8           C18   1.285       .  A
O8          Cu15   2.046       .  S
O9           C19   1.270       .  A
O9          Cu15   1.969       .  S
O10          C20   1.268       .  A
O10         Cu15   1.942       .  S
O11          C20   1.278       .  A
O11         Cu16   2.006       .  S
O12          C19   1.280       .  A
O12         Cu16   2.021       .  S
O13          C18   1.275       .  A
O13         Cu16   1.996       .  S
O14          C17   1.275       .  A
O14        Cu376   1.986   1_554  S
Cu15        O367   2.041       .  S
Cu15        Cu16   2.373       .  S
Cu16        O374   1.986       .  S
C17         C250   1.496       .  S
C18         C264   1.496       .  S
C19         C292   1.459       .  S
C20         C278   1.441       .  S
O21         C751   1.282       .  A
O21         Cu29   2.034   1_554  S
O22         C752   1.282       .  A
O22        Cu389   2.037       .  S
O23         C753   1.270       .  A
O23         Cu29   1.957       .  S
O24         C754   1.274       .  A
O24         Cu29   1.985       .  S
O25          C34   1.277       .  A
O25         Cu30   2.005       .  S
O26          C33   1.276       .  A
O26         Cu30   1.993       .  S
O27          C32   1.275       .  A
O27        Cu390   1.986       .  S
O28          C31   1.274       .  A
O28         Cu30   1.982   1_554  S
Cu29        O382   2.037       .  S
Cu29       Cu750   2.375       .  S
Cu30        O387   1.986       .  S
Cu30       Cu749   2.375   1_545  S
C31         C225   1.479       .  S
C31         O741   1.282   1_545  A
C32         C236   1.496       .  S
C32         O742   1.282   1_545  A
C33         C351   1.441       .  S
C33         O743   1.270   1_545  A
C34         C337   1.460       .  S
C34         O744   1.274   1_545  A
C35         C194   1.462       .  S
C35          C36   1.408       .  A
C35          C40   1.388       .  A
C36          C37   1.403       .  A
C36          H41   1.083       .  S
C37         C208   1.502       .  S
C37          C38   1.412       .  A
C38          C39   1.418       .  A
C38          H42   1.076       .  S
C39         C180   1.481       .  S
C39          C40   1.388       .  A
C40          H43   1.086       .  S
O44          C54   1.275       .  A
O44         Cu52   1.998       .  S
O45          C55   1.277       .  A
O45         Cu52   2.003       .  S
O46          C56   1.282       .  A
O46         Cu52   2.050       .  S
O47          C57   1.283       .  A
O47       Cu1492   2.060       .  S
O48          C57   1.281       .  A
O48       Cu1493   2.041       .  S
O49          C56   1.280       .  A
O49         Cu53   2.037       .  S
O50          C55   1.277       .  A
O50         Cu53   2.008       .  S
O51          C54   1.276       .  A
O51         Cu53   1.992       .  S
Cu52       O1487   2.060       .  S
Cu52        Cu53   2.373       .  S
Cu53       O1488   2.041       .  S
C54         C152   1.462       .  S
C55         C138   1.472       .  S
C56         C211   1.495       .  S
C57         C166   1.505       .  S
C58         C124   1.471       .  S
C58          C59   1.391       .  A
C58          C63   1.416       .  A
C59          C60   1.393       .  A
C59          H64   1.085       .  S
C60         C110   1.481       .  S
C60          C61   1.423       .  A
C61          C62   1.404       .  A
C61          H65   1.081       .  S
C62         C169   1.510       .  S
C62          C63   1.402       .  A
C63          H66   1.074       .  S
O67          C77   1.315       .  A
O67         Cu75   2.194       .  S
O68          C78   1.312       .  A
O68         Cu75   2.172       .  S
O69          C79   1.233       .  A
O69         Cu75   2.165       .  S
O70          C80   1.236       .  A
O70         Cu75   2.133       .  S
O71          C80   1.232       .  A
O71         Cu76   1.800       .  S
O72          C79   1.240       .  A
O72         Cu76   1.879       .  S
O73          C78   1.310       .  A
O73         Cu76   2.051       .  S
O74          C77   1.303       .  A
O74         Cu76   2.050       .  S
Cu75        Cu76   2.944       .  S
C77         C267   1.495       .  S
C78         C253   1.495       .  S
C79         C197   1.454       .  S
C80         C113   1.463       .  S
O81          C91   1.296       .  A
O81         Cu89   2.139       .  S
O82          C92   1.296       .  A
O82         Cu89   2.149       .  S
O83          C93   1.239       .  A
O83         Cu89   2.156       .  S
O84          C94   1.274   1_545  A
O84         Cu89   2.034       .  S
O85          C94   1.259       .  A
O85         Cu90   1.967       .  S
O86         C813   1.250       .  A
O86        Cu810   1.876       .  S
O87          C92   1.294       .  A
O87         Cu90   2.063   1_545  S
O88          C91   1.299       .  A
O88         Cu90   2.057   1_545  S
Cu89        Cu90   2.656   1_545  S
Cu90        O806   1.876   1_565  S
C91         C222   1.491       .  S
C92         C239   1.493       .  S
C93         C127   1.467       .  S
C93         O806   1.250       .  A
C94         C183   1.459       .  S
O95         C105   1.281       .  A
O95        Cu103   2.043       .  S
O96         C106   1.281       .  A
O96        Cu103   2.046       .  S
O97         C107   1.280       .  A
O97        Cu103   2.023       .  S
O98         C108   1.279       .  A
O98        Cu463   2.010       .  S
O99        C1548   1.273       .  A
O99        Cu464   1.972       .  S
O100       C1547   1.274   1_455  A
O100       Cu104   1.984       .  S
O101       C1546   1.284   1_455  A
O101       Cu104   2.061       .  S
O102       C1545   1.283   1_455  A
O102       Cu104   2.056       .  S
Cu103       O458   2.010   1_554  S
Cu103     Cu1544   2.369       .  S
Cu104       O459   1.972   1_554  S
Cu104     Cu1543   2.369   1_455  S
C105        C323   1.503       .  S
C105       O1542   1.283       .  A
C106        C306   1.504       .  S
C106       O1541   1.284       .  A
C107        C141   1.478       .  S
C107       O1540   1.274       .  A
C108        C155   1.471       .  S
C108       O1539   1.273       .  A
C109        C110   1.407       .  A
C109        C114   1.401       .  A
C109        H116   1.083       .  S
C110        C111   1.404       .  A
C111        C112   1.400       .  A
C111        N118   1.428       .  S
C112        C113   1.407       .  A
C112        H117   1.079       .  S
C113        C114   1.403       .  A
C114        N115   1.432       .  S
N115        H119   1.045       .  S
N115        H120   1.046       .  S
N118        H121   1.046       .  S
N118        H122   1.045       .  S
C123        C124   1.400       .  A
C123        C128   1.406       .  A
C123        H130   1.084       .  S
C124        C125   1.408       .  A
C125        C126   1.403       .  A
C125        N132   1.437       .  S
C126        C847   1.400       .  A
C126        H851   1.084       .  S
C127        C846   1.400       .  A
C127        C848   1.408       .  A
C128        C847   1.408       .  A
C128        N129   1.436       .  S
N129        H133   1.046       .  S
N129        H854   1.045       .  S
H131        C846   1.084       .  S
N132        H135   1.045       .  S
N132        H136   1.044       .  S
H134        N849   1.045       .  S
C137        C142   1.402       .  A
C137       C1578   1.400       .  A
C137        H144   1.084       .  S
C138        C139   1.419       .  A
C138       C1577   1.400       .  A
C139        C140   1.402       .  A
C139        N146   1.438       .  S
C140        C141   1.402       .  A
C140        H145   1.084       .  S
C141       C1582   1.414       .  A
C142       C1581   1.414   1_455  A
C142        N143   1.438       .  S
N143        H147   1.046       .  S
N143        H148   1.044       .  S
N146        H149   1.041       .  S
N146        H150   1.045       .  S
C151        C156   1.398       .  A
C151       C1592   1.396       .  A
C151        H158   1.082       .  S
C152        C153   1.409       .  A
C152       C1591   1.396       .  A
C153        C154   1.403       .  A
C153        N160   1.437       .  S
C154        C155   1.403       .  A
C154        H159   1.084       .  S
C155       C1596   1.412       .  A
C156       C1595   1.412       .  A
C156        N157   1.436       .  S
N157        H161   1.042       .  S
N157        H162   1.045       .  S
N160        H163   1.045       .  S
N160        H164   1.046       .  S
C165        C166   1.407       .  A
C165        C170   1.417       .  A
C165        H172   1.084       .  S
C166        C167   1.424       .  A
C167        C168   1.413       .  A
C167        N174   1.437       .  S
C168        C169   1.404       .  A
C168        H173   1.084       .  S
C169        C170   1.416       .  A
C170        N171   1.432       .  S
N171        H175   1.046       .  S
N171        H176   1.044       .  S
N174        H177   1.041       .  S
N174        H178   1.046       .  S
C179        C180   1.411       .  A
C179        C184   1.400   1_545  A
C179        H186   1.080       .  S
C180        C181   1.405   1_545  A
C181        C182   1.400       .  A
C181        N188   1.434       .  S
C182        C183   1.406       .  A
C182        H187   1.083       .  S
C183        C184   1.400       .  A
C184        N185   1.438       .  S
N185        H189   1.046   1_565  S
N185        H190   1.045   1_565  S
N188        H911   1.045   1_565  S
N188        H912   1.045       .  S
H191        N908   1.045       .  S
H192        N908   1.045       .  S
C193        C194   1.402       .  A
C193        C198   1.405       .  A
C193        H200   1.084       .  S
C194        C195   1.414       .  A
C195        C196   1.389       .  A
C195        N202   1.434       .  S
C196        C197   1.397       .  A
C196        H201   1.085       .  S
C197        C198   1.408       .  A
C198        N199   1.436       .  S
N199        H203   1.046       .  S
N199        H204   1.045       .  S
N202        H205   1.044       .  S
N202        H206   1.041       .  S
C207        C208   1.410       .  A
C207        C212   1.419       .  A
C207        H214   1.084       .  S
C208        C209   1.417       .  A
C209        C210   1.407       .  A
C209        N216   1.435       .  S
C210        C211   1.402       .  A
C210        H215   1.082       .  S
C211        C212   1.412       .  A
C212        N213   1.436       .  S
N213        H217   1.046       .  S
N213        H218   1.043       .  S
N216        H219   1.043       .  S
N216        H220   1.043       .  S
C221        C222   1.407       .  A
C221        C226   1.400       .  A
C221        H228   1.084       .  S
C222        C223   1.416   1_545  A
C223        C224   1.408       .  A
C223        N230   1.437       .  S
C224        C225   1.403   1_565  A
C224        H229   1.083       .  S
C225        C226   1.416       .  A
C226        N227   1.440       .  S
N227        H951   1.046       .  S
N227        H952   1.043       .  S
N230        H233   1.045       .  S
N230        H234   1.046       .  S
H231        N947   1.046       .  S
H232        N947   1.043       .  S
C235        C956   1.406       .  A
C235        C960   1.410       .  A
C235        H242   1.083       .  S
C236        C237   1.415       .  A
C236        C955   1.406   1_545  A
C237        C238   1.403       .  A
C237        N244   1.431       .  S
C238        C239   1.403       .  A
C238        H243   1.082       .  S
C239        C240   1.418   1_545  A
C240        C955   1.410       .  A
C240        N961   1.433       .  S
N241        C960   1.433       .  S
N241        H245   1.046       .  S
N241        H246   1.045       .  S
N244        H247   1.044       .  S
N244        H248   1.046       .  S
C249        C250   1.410       .  A
C249        C254   1.405       .  A
C249        H256   1.083       .  S
C250        C251   1.413       .  A
C251        C252   1.409       .  A
C251        N258   1.438       .  S
C252        C253   1.412       .  A
C252        H257   1.083       .  S
C253        C254   1.413       .  A
C254        N255   1.438       .  S
N255        H259   1.046       .  S
N255        H260   1.045       .  S
N258        H261   1.045       .  S
N258        H262   1.046       .  S
C263        C264   1.401       .  A
C263        C268   1.408       .  A
C263        H270   1.084       .  S
C264        C265   1.421       .  A
C265        C266   1.410       .  A
C265        N272   1.436       .  S
C266        C267   1.399       .  A
C266        H271   1.082       .  S
C267        C268   1.417       .  A
C268        N269   1.430       .  S
N269        H273   1.045       .  S
N269        H274   1.043       .  S
N272        H275   1.046       .  S
N272        H276   1.044       .  S
C277        C282   1.394       .  A
C277        C638   1.397       .  A
C277        H284   1.084       .  S
C278        C279   1.409       .  A
C278        C637   1.397       .  A
C279        C280   1.385       .  A
C279        N286   1.431       .  S
C280        C281   1.397       .  A
C280        H285   1.084       .  S
C281        C366   1.460       .  S
C281        C642   1.405       .  A
C282        C641   1.405       .  A
C282        N283   1.432       .  S
N283        H287   1.046       .  S
N283        H288   1.045       .  S
N286        H289   1.045       .  S
N286        H290   1.043       .  S
C291        C292   1.402       .  A
C291        C296   1.398       .  A
C291        H298   1.084       .  S
C292        C653   1.402       .  A
C293        C294   1.400       .  A
C293        C652   1.402       .  A
C293        N300   1.438       .  S
C294        C655   1.406       .  A
C294        H299   1.083       .  S
C295        C363   1.480       .  S
C295        C296   1.414       .  A
C295        C654   1.406       .  A
C296        N297   1.438       .  S
N297        H301   1.045       .  S
N297        H302   1.043       .  S
N300        H303   1.046       .  S
N300        H304   1.046       .  S
C305        C306   1.405       .  A
C305        C310   1.415       .  A
C305        H312   1.084       .  S
C306       C2107   1.413   1_554  A
C307        C308   1.418       .  A
C307       C2106   1.413   1_455  A
C307        N314   1.437       .  S
C308       C2109   1.410   1_455  A
C308        H313   1.082       .  S
C309        C310   1.424       .  A
C309       C2108   1.410   1_554  A
C310        N311   1.438       .  S
N311        H315   1.046       .  S
N311        H316   1.043       .  S
N314        H317   1.046   1_455  S
N314        H318   1.046       .  S
C319        C324   1.416       .  A
C319       C1760   1.410   1_455  A
C319        H326   1.083       .  S
C320       C1444   1.520       .  S
C320       C1759   1.410       .  A
C320        C681   1.422   1_554  A
C321        C322   1.413       .  A
C321        C680   1.422       .  A
C321        N328   1.437       .  S
C322        C683   1.407       .  A
C322        H327   1.084       .  S
C323        C682   1.407   1_554  A
C323       C1764   1.412       .  A
C324       C1763   1.412   1_455  A
C324        N325   1.436       .  S
N325        H329   1.046       .  S
N325        H330   1.045       .  S
N328        H331   1.043       .  S
N328        H332   1.045       .  S
C333        C338   1.398       .  A
C333       C1414   1.403       .  A
C333        H340   1.084       .  S
C334        C335   1.414   1_556  A
C334       C1413   1.403   1_545  A
C335        C336   1.395       .  A
C335        N342   1.438       .  S
C336        C337   1.400   1_554  A
C336        H341   1.084       .  S
C337       C1418   1.413   1_545  A
C338       C1417   1.413       .  A
C338        N339   1.438       .  S
N339        H343   1.046       .  S
N339        H344   1.043       .  S
N342        H345   1.043       .  S
N342        H346   1.045       .  S
C347        C348   1.397   1_564  A
C347        C352   1.388       .  A
C347        H354   1.084       .  S
C348        C722   1.462   1_556  S
C348       C1429   1.416       .  A
C349        C350   1.391       .  A
C349       C1428   1.416       .  A
C349        N356   1.440       .  S
C350       C1431   1.395       .  A
C350        H355   1.085       .  S
C351        C352   1.407   1_546  A
C351       C1430   1.395       .  A
C352        N353   1.432       .  S
N353        H357   1.045       .  S
N353        H358   1.046   1_565  S
N356        H359   1.043       .  S
N356        H360   1.046       .  S
C361        C669   1.529       .  S
C361       C1082   1.400       .  A
C361       C1806   1.403       .  A
C362       C1428   1.462       .  S
C362       C1081   1.400       .  A
C362        C363   1.422       .  A
C363       C1804   1.421       .  A
C364       C2120   1.520       .  S
C364       C1803   1.421       .  A
C364       C1085   1.417   1_655  A
C365        C694   1.480       .  S
C365       C1084   1.417   1_445  A
C365        C366   1.421       .  A
C366       C1801   1.403   1_455  A
O367        C377   1.283       .  A
O368        C378   1.285       .  A
O368       Cu375   2.046       .  S
O369        C379   1.270       .  A
O369       Cu375   1.969       .  S
O370        C380   1.268       .  A
O370       Cu375   1.942       .  S
O371        C380   1.278       .  A
O371       Cu376   2.006       .  S
O372        C379   1.280       .  A
O372       Cu376   2.021       .  S
O373        C378   1.275       .  A
O373       Cu376   1.997       .  S
O374        C377   1.275       .  A
Cu375      Cu376   2.373       .  S
C377        C610   1.496       .  S
C378        C624   1.496       .  S
C379        C652   1.459       .  S
C380        C638   1.441       .  S
O381       C1111   1.282       .  A
O381       Cu389   2.034       .  S
O382       C1112   1.282       .  A
O383       C1113   1.270       .  A
O383       Cu389   1.957       .  S
O384       C1114   1.274       .  A
O384       Cu389   1.985       .  S
O385        C394   1.277       .  A
O385       Cu390   2.005       .  S
O386        C393   1.276       .  A
O386       Cu390   1.993       .  S
O387        C392   1.275       .  A
O388        C391   1.274       .  A
O388       Cu390   1.982       .  S
Cu389     Cu1110   2.375       .  S
Cu390     Cu1109   2.375   1_545  S
C391        C585   1.479       .  S
C391       O1101   1.282   1_545  A
C392        C596   1.496       .  S
C392       O1102   1.282   1_545  A
C393        C711   1.441       .  S
C393       O1103   1.270   1_545  A
C394        C697   1.460       .  S
C394       O1104   1.274   1_545  A
C395        C554   1.462       .  S
C395        C396   1.408       .  A
C395        C400   1.388       .  A
C396        C397   1.403       .  A
C396        H401   1.083       .  S
C397        C568   1.502       .  S
C397        C398   1.412       .  A
C398        C399   1.418       .  A
C398        H402   1.076       .  S
C399        C540   1.481       .  S
C399        C400   1.388       .  A
C400        H403   1.086       .  S
O404        C414   1.275       .  A
O404       Cu412   1.998       .  S
O405        C415   1.277       .  A
O405       Cu412   2.003       .  S
O406        C416   1.282       .  A
O406       Cu412   2.050       .  S
O407        C417   1.283       .  A
O407      Cu1852   2.060       .  S
O408        C417   1.281       .  A
O408      Cu1853   2.041       .  S
O409        C416   1.280       .  A
O409       Cu413   2.037       .  S
O410        C415   1.277       .  A
O410       Cu413   2.008       .  S
O411        C414   1.276       .  A
O411       Cu413   1.992       .  S
Cu412      O1847   2.060       .  S
Cu412      Cu413   2.373       .  S
Cu413      O1848   2.041       .  S
C414        C512   1.462       .  S
C415        C498   1.472       .  S
C416        C571   1.495       .  S
C417        C526   1.505       .  S
C418        C484   1.471       .  S
C418        C419   1.391       .  A
C418        C423   1.416       .  A
C419        C420   1.393       .  A
C419        H424   1.085       .  S
C420        C470   1.481       .  S
C420        C421   1.423       .  A
C421        C422   1.404       .  A
C421        H425   1.081       .  S
C422        C529   1.510       .  S
C422        C423   1.402       .  A
C423        H426   1.074       .  S
O427        C437   1.315       .  A
O427       Cu435   2.194       .  S
O428        C438   1.312       .  A
O428       Cu435   2.172       .  S
O429        C439   1.233       .  A
O429       Cu435   2.165       .  S
O430        C440   1.236       .  A
O430       Cu435   2.133       .  S
O431        C440   1.232       .  A
O431       Cu436   1.800       .  S
O432        C439   1.240       .  A
O432       Cu436   1.879       .  S
O433        C438   1.310       .  A
O433       Cu436   2.051       .  S
O434        C437   1.303       .  A
O434       Cu436   2.050       .  S
Cu435      Cu436   2.944       .  S
C437        C627   1.495       .  S
C438        C613   1.495       .  S
C439        C557   1.454       .  S
C440        C473   1.463       .  S
O441        C451   1.296       .  A
O441       Cu449   2.139       .  S
O442        C452   1.296       .  A
O442       Cu449   2.149       .  S
O443        C453   1.239       .  A
O443       Cu449   2.156       .  S
O444        C454   1.274   1_545  A
O444       Cu449   2.034       .  S
O445        C454   1.259       .  A
O445       Cu450   1.967       .  S
O446       C1173   1.250       .  A
O446      Cu1170   1.876       .  S
O447        C452   1.294       .  A
O447       Cu450   2.063   1_545  S
O448        C451   1.299       .  A
O448       Cu450   2.057   1_545  S
Cu449      Cu450   2.656   1_545  S
Cu450      O1166   1.876   1_565  S
C451        C582   1.491       .  S
C452        C599   1.493       .  S
C453        C487   1.467       .  S
C453       O1166   1.250       .  A
C454        C543   1.459       .  S
O455        C465   1.281       .  A
O455       Cu463   2.043       .  S
O456        C466   1.281       .  A
O456       Cu463   2.046       .  S
O457        C467   1.280       .  A
O457       Cu463   2.023       .  S
O458        C468   1.279       .  A
O459       C1908   1.273       .  A
O460       C1907   1.274   1_455  A
O460       Cu464   1.984       .  S
O461       C1906   1.284   1_455  A
O461       Cu464   2.061       .  S
O462       C1905   1.283   1_455  A
O462       Cu464   2.056       .  S
Cu463     Cu1904   2.369       .  S
Cu464     Cu1903   2.369   1_455  S
C465        C683   1.503       .  S
C465       O1902   1.283       .  A
C466        C666   1.504       .  S
C466       O1901   1.284       .  A
C467        C501   1.478       .  S
C467       O1900   1.274       .  A
C468        C515   1.471       .  S
C468       O1899   1.273       .  A
C469        C470   1.407       .  A
C469        C474   1.401       .  A
C469        H476   1.083       .  S
C470        C471   1.404       .  A
C471        C472   1.400       .  A
C471        N478   1.428       .  S
C472        C473   1.407       .  A
C472        H477   1.079       .  S
C473        C474   1.403       .  A
C474        N475   1.432       .  S
N475        H479   1.045       .  S
N475        H480   1.046       .  S
N478        H481   1.046       .  S
N478        H482   1.045       .  S
C483        C484   1.400       .  A
C483        C488   1.406       .  A
C483        H490   1.084       .  S
C484        C485   1.408       .  A
C485        C486   1.403       .  A
C485        N492   1.437       .  S
C486       C1207   1.400       .  A
C486       H1211   1.084       .  S
C487       C1206   1.400       .  A
C487       C1208   1.408       .  A
C488       C1207   1.408       .  A
C488        N489   1.436       .  S
N489        H493   1.046       .  S
N489       H1214   1.045       .  S
H491       C1206   1.084       .  S
N492        H495   1.045       .  S
N492        H496   1.044       .  S
H494       N1209   1.045       .  S
C497       C1938   1.400       .  A
C497        C502   1.402       .  A
C497        H504   1.084       .  S
C498       C1937   1.400       .  A
C498        C499   1.419       .  A
C499        C500   1.402       .  A
C499        N506   1.438       .  S
C500        C501   1.402       .  A
C500        H505   1.084       .  S
C501       C1942   1.414       .  A
C502       C1941   1.414   1_455  A
C502        N503   1.438       .  S
N503        H507   1.046       .  S
N503        H508   1.044       .  S
N506        H509   1.041       .  S
N506        H510   1.045       .  S
C511       C1952   1.396       .  A
C511        C516   1.398       .  A
C511        H518   1.082       .  S
C512       C1951   1.396       .  A
C512        C513   1.409       .  A
C513        C514   1.403       .  A
C513        N520   1.437       .  S
C514        C515   1.403       .  A
C514        H519   1.084       .  S
C515       C1956   1.412       .  A
C516       C1955   1.412       .  A
C516        N517   1.436       .  S
N517        H521   1.042       .  S
N517        H522   1.045       .  S
N520        H523   1.045       .  S
N520        H524   1.046       .  S
C525        C526   1.407       .  A
C525        C530   1.417       .  A
C525        H532   1.084       .  S
C526        C527   1.424       .  A
C527        C528   1.413       .  A
C527        N534   1.437       .  S
C528        C529   1.404       .  A
C528        H533   1.084       .  S
C529        C530   1.416       .  A
C530        N531   1.432       .  S
N531        H535   1.046       .  S
N531        H536   1.044       .  S
N534        H537   1.041       .  S
N534        H538   1.046       .  S
C539        C540   1.411       .  A
C539        C544   1.400   1_545  A
C539        H546   1.080       .  S
C540        C541   1.405   1_545  A
C541        C542   1.400       .  A
C541        N548   1.434       .  S
C542        C543   1.406       .  A
C542        H547   1.083       .  S
C543        C544   1.400       .  A
C544        N545   1.438       .  S
N545        H549   1.046   1_565  S
N545        H550   1.045   1_565  S
N548       H1271   1.045   1_565  S
N548       H1272   1.045       .  S
H551       N1268   1.045       .  S
H552       N1268   1.045       .  S
C553        C554   1.402       .  A
C553        C558   1.405       .  A
C553        H560   1.084       .  S
C554        C555   1.414       .  A
C555        C556   1.389       .  A
C555        N562   1.434       .  S
C556        C557   1.397       .  A
C556        H561   1.085       .  S
C557        C558   1.408       .  A
C558        N559   1.436       .  S
N559        H563   1.046       .  S
N559        H564   1.045       .  S
N562        H565   1.044       .  S
N562        H566   1.041       .  S
C567        C568   1.410       .  A
C567        C572   1.419       .  A
C567        H574   1.084       .  S
C568        C569   1.417       .  A
C569        C570   1.407       .  A
C569        N576   1.435       .  S
C570        C571   1.402       .  A
C570        H575   1.082       .  S
C571        C572   1.412       .  A
C572        N573   1.436       .  S
N573        H577   1.046       .  S
N573        H578   1.043       .  S
N576        H579   1.043       .  S
N576        H580   1.043       .  S
C581        C582   1.407       .  A
C581        C586   1.400       .  A
C581        H588   1.084       .  S
C582        C583   1.416   1_545  A
C583        C584   1.408       .  A
C583        N590   1.437       .  S
C584        C585   1.403   1_565  A
C584        H589   1.083       .  S
C585        C586   1.416       .  A
C586        N587   1.440       .  S
N587       H1311   1.046       .  S
N587       H1312   1.043       .  S
N590        H593   1.045       .  S
N590        H594   1.046       .  S
H591       N1307   1.046       .  S
H592       N1307   1.043       .  S
C595       C1316   1.406       .  A
C595       C1320   1.410       .  A
C595        H602   1.083       .  S
C596       C1315   1.406   1_545  A
C596        C597   1.415       .  A
C597        C598   1.403       .  A
C597        N604   1.431       .  S
C598        C599   1.403       .  A
C598        H603   1.082       .  S
C599        C600   1.418   1_545  A
C600       C1315   1.410       .  A
C600       N1321   1.433       .  S
N601       C1320   1.433       .  S
N601        H605   1.046       .  S
N601        H606   1.045       .  S
N604        H607   1.044       .  S
N604        H608   1.046       .  S
C609        C610   1.410       .  A
C609        C614   1.405       .  A
C609        H616   1.083       .  S
C610        C611   1.413       .  A
C611        C612   1.409       .  A
C611        N618   1.438       .  S
C612        C613   1.412       .  A
C612        H617   1.083       .  S
C613        C614   1.413       .  A
C614        N615   1.438       .  S
N615        H619   1.046       .  S
N615        H620   1.045       .  S
N618        H621   1.045       .  S
N618        H622   1.046       .  S
C623        C624   1.401       .  A
C623        C628   1.408       .  A
C623        H630   1.084       .  S
C624        C625   1.421       .  A
C625        C626   1.410       .  A
C625        N632   1.436       .  S
C626        C627   1.399       .  A
C626        H631   1.082       .  S
C627        C628   1.417       .  A
C628        N629   1.430       .  S
N629        H633   1.045       .  S
N629        H634   1.043       .  S
N632        H635   1.046       .  S
N632        H636   1.044       .  S
C637        C642   1.394       .  A
C637        H644   1.084       .  S
C638        C639   1.409   1_556  A
C639        C640   1.385       .  A
C639        N646   1.431       .  S
C640        C641   1.397   1_554  A
C640        H645   1.084       .  S
C642        N643   1.432       .  S
N643        H647   1.046       .  S
N643        H648   1.045       .  S
N646        H649   1.045       .  S
N646        H650   1.043       .  S
C651        C652   1.402   1_554  A
C651        C656   1.398       .  A
C651        H658   1.084       .  S
C653        C654   1.400       .  A
C653        N660   1.438       .  S
C654        H659   1.083       .  S
C655        C656   1.414   1_556  A
C656        N657   1.438       .  S
N657        H661   1.045       .  S
N657        H662   1.043       .  S
N660        H663   1.046       .  S
N660        H664   1.046       .  S
C665        C666   1.405       .  A
C665        C670   1.415       .  A
C665        H672   1.084       .  S
C666       C1747   1.413       .  A
C667       C1746   1.413   1_456  A
C667        C668   1.418       .  A
C667        N674   1.437       .  S
C668       C1749   1.410   1_456  A
C668        H673   1.082       .  S
C669       C1748   1.410       .  A
C669        C670   1.424       .  A
C670        N671   1.438       .  S
N671        H675   1.046       .  S
N671        H676   1.043       .  S
N674        H677   1.046   1_455  S
N674        H678   1.046       .  S
C679       C2120   1.410   1_455  A
C679        C684   1.416       .  A
C679        H686   1.083       .  S
C680       C1804   1.520       .  S
C680       C2119   1.410       .  A
C681        C682   1.413       .  A
C681        N688   1.437       .  S
C682        H687   1.084       .  S
C683       C2124   1.412       .  A
C684       C2123   1.412   1_455  A
C684        N685   1.436       .  S
N685        H689   1.046       .  S
N685        H690   1.045       .  S
N688        H691   1.043       .  S
N688        H692   1.045       .  S
C693       C1054   1.403       .  A
C693        C698   1.398       .  A
C693        H700   1.084       .  S
C694       C1053   1.403   1_545  A
C694        C695   1.414       .  A
C695        C696   1.395       .  A
C695        N702   1.438       .  S
C696        C697   1.400       .  A
C696        H701   1.084       .  S
C697       C1058   1.413   1_545  A
C698       C1057   1.413       .  A
C698        N699   1.438       .  S
N699        H703   1.046       .  S
N699        H704   1.043       .  S
N702        H705   1.043       .  S
N702        H706   1.045       .  S
C707        C708   1.397   1_565  A
C707        C712   1.388       .  A
C707        H714   1.084       .  S
C708       C1082   1.462       .  S
C708       C1069   1.416       .  A
C709       C1068   1.416       .  A
C709        C710   1.391       .  A
C709        N716   1.440       .  S
C710       C1071   1.395       .  A
C710        H715   1.085       .  S
C711       C1070   1.395       .  A
C711        C712   1.407   1_545  A
C712        N713   1.432       .  S
N713        H717   1.045       .  S
N713        H718   1.046   1_565  S
N716        H719   1.043       .  S
N716        H720   1.046       .  S
C721       C1029   1.529       .  S
C721       C2166   1.403       .  A
C722        C723   1.422   1_544  A
C723       C1375   1.480       .  S
C723       C2164   1.421   1_556  A
C724       C2480   1.520       .  S
C724       C2163   1.421   1_554  A
C725       C1054   1.480       .  S
C725        C726   1.421   1_556  A
C726       C1361   1.460   1_554  S
C726       C2161   1.403   1_455  A
O727        C737   1.283       .  A
O727      Cu1095   2.041   1_554  S
O728        C738   1.285       .  A
O728       Cu735   2.046       .  S
O729        C739   1.270       .  A
O729       Cu735   1.969       .  S
O730        C740   1.268       .  A
O730       Cu735   1.942       .  S
O731        C740   1.278       .  A
O731       Cu736   2.006       .  S
O732        C739   1.280       .  A
O732       Cu736   2.021       .  S
O733        C738   1.275       .  A
O733       Cu736   1.996       .  S
O734        C737   1.275       .  A
O734      Cu1096   1.986   1_554  S
Cu735      O1087   2.041       .  S
Cu735      Cu736   2.373       .  S
Cu736      O1094   1.986       .  S
C737        C970   1.496       .  S
C738        C984   1.496       .  S
C739       C1012   1.459       .  S
C740        C998   1.441       .  S
O741       Cu749   2.034   1_554  S
O742      Cu1109   2.037       .  S
O743       Cu749   1.957       .  S
O744       Cu749   1.985       .  S
O745        C754   1.277       .  A
O745       Cu750   2.005       .  S
O746        C753   1.276       .  A
O746       Cu750   1.993       .  S
O747        C752   1.275       .  A
O747      Cu1110   1.986       .  S
O748        C751   1.274       .  A
O748       Cu750   1.982   1_554  S
Cu749      O1102   2.037       .  S
Cu750      O1107   1.986       .  S
C751        C945   1.479       .  S
C752        C956   1.496       .  S
C753       C1071   1.441       .  S
C754       C1057   1.460       .  S
C755        C914   1.462       .  S
C755        C756   1.408       .  A
C755        C760   1.388       .  A
C756        C757   1.403       .  A
C756        H761   1.083       .  S
C757        C928   1.502       .  S
C757        C758   1.412       .  A
C758        C759   1.418       .  A
C758        H762   1.076       .  S
C759        C900   1.481       .  S
C759        C760   1.388       .  A
C760        H763   1.086       .  S
O764        C774   1.275       .  A
O764       Cu772   1.998       .  S
O765        C775   1.277       .  A
O765       Cu772   2.003       .  S
O766        C776   1.282       .  A
O766       Cu772   2.050       .  S
O767        C777   1.283       .  A
O767      Cu2212   2.060       .  S
O768        C777   1.281       .  A
O768      Cu2213   2.041       .  S
O769        C776   1.280       .  A
O769       Cu773   2.037       .  S
O770        C775   1.277       .  A
O770       Cu773   2.008       .  S
O771        C774   1.276       .  A
O771       Cu773   1.992       .  S
Cu772      O2207   2.060       .  S
Cu772      Cu773   2.373       .  S
Cu773      O2208   2.041       .  S
C774        C872   1.462       .  S
C775        C858   1.472       .  S
C776        C931   1.495       .  S
C777        C886   1.505       .  S
C778        C844   1.471       .  S
C778        C779   1.391       .  A
C778        C783   1.416       .  A
C779        C780   1.393       .  A
C779        H784   1.085       .  S
C780        C830   1.481       .  S
C780        C781   1.423       .  A
C781        C782   1.404       .  A
C781        H785   1.081       .  S
C782        C889   1.510       .  S
C782        C783   1.402       .  A
C783        H786   1.074       .  S
O787        C797   1.315       .  A
O787       Cu795   2.194       .  S
O788        C798   1.312       .  A
O788       Cu795   2.172       .  S
O789        C799   1.233       .  A
O789       Cu795   2.165       .  S
O790        C800   1.236       .  A
O790       Cu795   2.133       .  S
O791        C800   1.232       .  A
O791       Cu796   1.800       .  S
O792        C799   1.240       .  A
O792       Cu796   1.879       .  S
O793        C798   1.310       .  A
O793       Cu796   2.051       .  S
O794        C797   1.303       .  A
O794       Cu796   2.050       .  S
Cu795      Cu796   2.944       .  S
C797        C987   1.495       .  S
C798        C973   1.495       .  S
C799        C917   1.454       .  S
C800        C833   1.463       .  S
O801        C811   1.296       .  A
O801       Cu809   2.139       .  S
O802        C812   1.296       .  A
O802       Cu809   2.149       .  S
O803        C813   1.239       .  A
O803       Cu809   2.156       .  S
O804        C814   1.274       .  A
O804       Cu809   2.034       .  S
O805        C814   1.259       .  A
O805       Cu810   1.967       .  S
O807        C812   1.294       .  A
O807       Cu810   2.063       .  S
O808        C811   1.299       .  A
O808       Cu810   2.057       .  S
Cu809      Cu810   2.656       .  S
C811        C942   1.491       .  S
C812        C959   1.493       .  S
C813        C847   1.467       .  S
C814        C903   1.459       .  S
O815        C825   1.281       .  A
O815       Cu823   2.043       .  S
O816        C826   1.281       .  A
O816       Cu823   2.046       .  S
O817        C827   1.280       .  A
O817       Cu823   2.023       .  S
O818        C828   1.279       .  A
O818      Cu1183   2.010       .  S
O819       C2268   1.273       .  A
O819      Cu1184   1.972       .  S
O820       C2267   1.274   1_455  A
O820       Cu824   1.984       .  S
O821       C2266   1.284   1_455  A
O821       Cu824   2.061       .  S
O822       C2265   1.283   1_455  A
O822       Cu824   2.056       .  S
Cu823      O1178   2.010   1_554  S
Cu823     Cu2264   2.369       .  S
Cu824      O1179   1.972   1_554  S
Cu824     Cu2263   2.369   1_455  S
C825       C1043   1.503       .  S
C825       O2262   1.283       .  A
C826       C1026   1.504       .  S
C826       O2261   1.284       .  A
C827        C861   1.478       .  S
C827       O2260   1.274       .  A
C828        C875   1.471       .  S
C828       O2259   1.273       .  A
C829        C830   1.407       .  A
C829        C834   1.401       .  A
C829        H836   1.083       .  S
C830        C831   1.404       .  A
C831        C832   1.400       .  A
C831        N838   1.428       .  S
C832        C833   1.407       .  A
C832        H837   1.079       .  S
C833        C834   1.403       .  A
C834        N835   1.432       .  S
N835        H839   1.045       .  S
N835        H840   1.046       .  S
N838        H841   1.046       .  S
N838        H842   1.045       .  S
C843        C844   1.400   1_545  A
C843        C848   1.406       .  A
C843        H850   1.084       .  S
C844        C845   1.408       .  A
C845        C846   1.403   1_565  A
C845        N852   1.437       .  S
C848        N849   1.436       .  S
N849        H853   1.046       .  S
N852        H855   1.045       .  S
N852        H856   1.044       .  S
C857       C2298   1.400       .  A
C857        C862   1.402       .  A
C857        H864   1.084       .  S
C858       C2297   1.400       .  A
C858        C859   1.419       .  A
C859        C860   1.402       .  A
C859        N866   1.438       .  S
C860        C861   1.402       .  A
C860        H865   1.084       .  S
C861       C2302   1.414       .  A
C862       C2301   1.414   1_455  A
C862        N863   1.438       .  S
N863        H867   1.046       .  S
N863        H868   1.044       .  S
N866        H869   1.041       .  S
N866        H870   1.045       .  S
C871       C2312   1.396       .  A
C871        C876   1.398       .  A
C871        H878   1.082       .  S
C872       C2311   1.396       .  A
C872        C873   1.409       .  A
C873        C874   1.403       .  A
C873        N880   1.437       .  S
C874        C875   1.403       .  A
C874        H879   1.084       .  S
C875       C2316   1.412       .  A
C876       C2315   1.412       .  A
C876        N877   1.436       .  S
N877        H881   1.042       .  S
N877        H882   1.045       .  S
N880        H883   1.045       .  S
N880        H884   1.046       .  S
C885        C886   1.407       .  A
C885        C890   1.417       .  A
C885        H892   1.084       .  S
C886        C887   1.424       .  A
C887        C888   1.413       .  A
C887        N894   1.437       .  S
C888        C889   1.404       .  A
C888        H893   1.084       .  S
C889        C890   1.416       .  A
C890        N891   1.432       .  S
N891        H895   1.046       .  S
N891        H896   1.044       .  S
N894        H897   1.041       .  S
N894        H898   1.046       .  S
C899        C900   1.411       .  A
C899        C904   1.400       .  A
C899        H906   1.080       .  S
C900        C901   1.405       .  A
C901        C902   1.400       .  A
C901        N908   1.434       .  S
C902        C903   1.406       .  A
C902        H907   1.083       .  S
C903        C904   1.400       .  A
C904        N905   1.438       .  S
N905        H909   1.046       .  S
N905        H910   1.045       .  S
C913        C914   1.402       .  A
C913        C918   1.405       .  A
C913        H920   1.084       .  S
C914        C915   1.414       .  A
C915        C916   1.389       .  A
C915        N922   1.434       .  S
C916        C917   1.397       .  A
C916        H921   1.085       .  S
C917        C918   1.408       .  A
C918        N919   1.436       .  S
N919        H923   1.046       .  S
N919        H924   1.045       .  S
N922        H925   1.044       .  S
N922        H926   1.041       .  S
C927        C928   1.410       .  A
C927        C932   1.419       .  A
C927        H934   1.084       .  S
C928        C929   1.417       .  A
C929        C930   1.407       .  A
C929        N936   1.435       .  S
C930        C931   1.402       .  A
C930        H935   1.082       .  S
C931        C932   1.412       .  A
C932        N933   1.436       .  S
N933        H937   1.046       .  S
N933        H938   1.043       .  S
N936        H939   1.043       .  S
N936        H940   1.043       .  S
C941        C942   1.407       .  A
C941        C946   1.400       .  A
C941        H948   1.084       .  S
C942        C943   1.416       .  A
C943        C944   1.408       .  A
C943        N950   1.437       .  S
C944        C945   1.403       .  A
C944        H949   1.083       .  S
C945        C946   1.416       .  A
C946        N947   1.440       .  S
N950        H953   1.045       .  S
N950        H954   1.046       .  S
C955        H962   1.083       .  S
C956        C957   1.415       .  A
C957        C958   1.403       .  A
C957        N964   1.431       .  S
C958        C959   1.403       .  A
C958        H963   1.082       .  S
C959        C960   1.418       .  A
N961        H965   1.046       .  S
N961        H966   1.045       .  S
N964        H967   1.044       .  S
N964        H968   1.046       .  S
C969        C970   1.410       .  A
C969        C974   1.405       .  A
C969        H976   1.083       .  S
C970        C971   1.413       .  A
C971        C972   1.409       .  A
C971        N978   1.438       .  S
C972        C973   1.412       .  A
C972        H977   1.083       .  S
C973        C974   1.413       .  A
C974        N975   1.438       .  S
N975        H979   1.046       .  S
N975        H980   1.045       .  S
N978        H981   1.045       .  S
N978        H982   1.046       .  S
C983        C984   1.401       .  A
C983        C988   1.408       .  A
C983        H990   1.084       .  S
C984        C985   1.421       .  A
C985        C986   1.410       .  A
C985        N992   1.436       .  S
C986        C987   1.399       .  A
C986        H991   1.082       .  S
C987        C988   1.417       .  A
C988        N989   1.430       .  S
N989        H993   1.045       .  S
N989        H994   1.043       .  S
N992        H995   1.046       .  S
N992        H996   1.044       .  S
C997       C1358   1.397       .  A
C997       C1002   1.394       .  A
C997       H1004   1.084       .  S
C998       C1357   1.397       .  A
C998        C999   1.409       .  A
C999       C1000   1.385       .  A
C999       N1006   1.431       .  S
C1000      C1001   1.397       .  A
C1000      H1005   1.084       .  S
C1001      C1086   1.460       .  S
C1001      C1362   1.405       .  A
C1002      C1361   1.405       .  A
C1002      N1003   1.432       .  S
N1003      H1007   1.046       .  S
N1003      H1008   1.045       .  S
N1006      H1009   1.045       .  S
N1006      H1010   1.043       .  S
C1011      C1012   1.402       .  A
C1011      C1016   1.398       .  A
C1011      H1018   1.084       .  S
C1012      C1373   1.402       .  A
C1013      C1372   1.402       .  A
C1013      C1014   1.400       .  A
C1013      N1020   1.438       .  S
C1014      C1375   1.406       .  A
C1014      H1019   1.083       .  S
C1015      C1083   1.480       .  S
C1015      C1374   1.406       .  A
C1015      C1016   1.414       .  A
C1016      N1017   1.438       .  S
N1017      H1021   1.045       .  S
N1017      H1022   1.043       .  S
N1020      H1023   1.046       .  S
N1020      H1024   1.046       .  S
C1025      C1026   1.405       .  A
C1025      C1030   1.415       .  A
C1025      H1032   1.084       .  S
C1026      C2827   1.413   1_554  A
C1027      C2826   1.413   1_455  A
C1027      C1028   1.418       .  A
C1027      N1034   1.437       .  S
C1028      C2829   1.410   1_455  A
C1028      H1033   1.082       .  S
C1029      C2828   1.410   1_554  A
C1029      C1030   1.424       .  A
C1030      N1031   1.438       .  S
N1031      H1035   1.046       .  S
N1031      H1036   1.043       .  S
N1034      H1037   1.046   1_455  S
N1034      H1038   1.046       .  S
C1039      C2480   1.410   1_455  A
C1039      C1044   1.416       .  A
C1039      H1046   1.083       .  S
C1040      C2164   1.520       .  S
C1040      C2479   1.410       .  A
C1040      C1401   1.422   1_554  A
C1041      C1400   1.422       .  A
C1041      C1042   1.413       .  A
C1041      N1048   1.437       .  S
C1042      C1403   1.407       .  A
C1042      H1047   1.084       .  S
C1043      C1402   1.407   1_554  A
C1043      C2484   1.412       .  A
C1044      C2483   1.412   1_455  A
C1044      N1045   1.436       .  S
N1045      H1049   1.046       .  S
N1045      H1050   1.045       .  S
N1048      H1051   1.043       .  S
N1048      H1052   1.045       .  S
C1053      C1058   1.398       .  A
C1053      H1060   1.084       .  S
C1054      C1055   1.414   1_556  A
C1055      C1056   1.395       .  A
C1055      N1062   1.438       .  S
C1056      C1057   1.400   1_554  A
C1056      H1061   1.084       .  S
C1058      N1059   1.438       .  S
N1059      H1063   1.046       .  S
N1059      H1064   1.043       .  S
N1062      H1065   1.043       .  S
N1062      H1066   1.045       .  S
C1067      C1068   1.397   1_554  A
C1067      C1072   1.388       .  A
C1067      H1074   1.084       .  S
C1069      C1070   1.391       .  A
C1069      N1076   1.440       .  S
C1070      H1075   1.085       .  S
C1071      C1072   1.407   1_556  A
C1072      N1073   1.432       .  S
N1073      H1077   1.045       .  S
N1073      H1078   1.046       .  S
N1076      H1079   1.043       .  S
N1076      H1080   1.046       .  S
C1081      C1389   1.529       .  S
C1081      C2526   1.403       .  A
C1082      C1083   1.422   1_545  A
C1083      C2524   1.421       .  A
C1084      C2840   1.520       .  S
C1084      C2523   1.421       .  A
C1085      C1414   1.480       .  S
C1085      C1086   1.421       .  A
C1086      C2521   1.403   1_455  A
O1087      C1097   1.283       .  A
O1088      C1098   1.285       .  A
O1088     Cu1095   2.046       .  S
O1089      C1099   1.270       .  A
O1089     Cu1095   1.969       .  S
O1090      C1100   1.268       .  A
O1090     Cu1095   1.942       .  S
O1091      C1100   1.278       .  A
O1091     Cu1096   2.006       .  S
O1092      C1099   1.280       .  A
O1092     Cu1096   2.021       .  S
O1093      C1098   1.275       .  A
O1093     Cu1096   1.997       .  S
O1094      C1097   1.275       .  A
Cu1095    Cu1096   2.373       .  S
C1097      C1330   1.496       .  S
C1098      C1344   1.496       .  S
C1099      C1372   1.459       .  S
C1100      C1358   1.441       .  S
O1101     Cu1109   2.034       .  S
O1103     Cu1109   1.957       .  S
O1104     Cu1109   1.985       .  S
O1105      C1114   1.277       .  A
O1105     Cu1110   2.005       .  S
O1106      C1113   1.276       .  A
O1106     Cu1110   1.993       .  S
O1107      C1112   1.275       .  A
O1108      C1111   1.274       .  A
O1108     Cu1110   1.982       .  S
C1111      C1305   1.479       .  S
C1112      C1316   1.496       .  S
C1113      C1431   1.441       .  S
C1114      C1417   1.460       .  S
C1115      C1274   1.462       .  S
C1115      C1116   1.408       .  A
C1115      C1120   1.388       .  A
C1116      C1117   1.403       .  A
C1116      H1121   1.083       .  S
C1117      C1288   1.502       .  S
C1117      C1118   1.412       .  A
C1118      C1119   1.418       .  A
C1118      H1122   1.076       .  S
C1119      C1260   1.481       .  S
C1119      C1120   1.388       .  A
C1120      H1123   1.086       .  S
O1124      C1134   1.275       .  A
O1124     Cu1132   1.998       .  S
O1125      C1135   1.277       .  A
O1125     Cu1132   2.003       .  S
O1126      C1136   1.282       .  A
O1126     Cu1132   2.050       .  S
O1127      C1137   1.283       .  A
O1127     Cu2572   2.060       .  S
O1128      C1137   1.281       .  A
O1128     Cu2573   2.041       .  S
O1129      C1136   1.280       .  A
O1129     Cu1133   2.037       .  S
O1130      C1135   1.277       .  A
O1130     Cu1133   2.008       .  S
O1131      C1134   1.276       .  A
O1131     Cu1133   1.992       .  S
Cu1132     O2567   2.060       .  S
Cu1132    Cu1133   2.373       .  S
Cu1133     O2568   2.041       .  S
C1134      C1232   1.462       .  S
C1135      C1218   1.472       .  S
C1136      C1291   1.495       .  S
C1137      C1246   1.505       .  S
C1138      C1204   1.471       .  S
C1138      C1139   1.391       .  A
C1138      C1143   1.416       .  A
C1139      C1140   1.393       .  A
C1139      H1144   1.085       .  S
C1140      C1190   1.481       .  S
C1140      C1141   1.423       .  A
C1141      C1142   1.404       .  A
C1141      H1145   1.081       .  S
C1142      C1249   1.510       .  S
C1142      C1143   1.402       .  A
C1143      H1146   1.074       .  S
O1147      C1157   1.315       .  A
O1147     Cu1155   2.194       .  S
O1148      C1158   1.312       .  A
O1148     Cu1155   2.172       .  S
O1149      C1159   1.233       .  A
O1149     Cu1155   2.165       .  S
O1150      C1160   1.236       .  A
O1150     Cu1155   2.133       .  S
O1151      C1160   1.232       .  A
O1151     Cu1156   1.800       .  S
O1152      C1159   1.240       .  A
O1152     Cu1156   1.879       .  S
O1153      C1158   1.310       .  A
O1153     Cu1156   2.051       .  S
O1154      C1157   1.303       .  A
O1154     Cu1156   2.050       .  S
Cu1155    Cu1156   2.944       .  S
C1157      C1347   1.495       .  S
C1158      C1333   1.495       .  S
C1159      C1277   1.454       .  S
C1160      C1193   1.463       .  S
O1161      C1171   1.296       .  A
O1161     Cu1169   2.139       .  S
O1162      C1172   1.296       .  A
O1162     Cu1169   2.149       .  S
O1163      C1173   1.239       .  A
O1163     Cu1169   2.156       .  S
O1164      C1174   1.274       .  A
O1164     Cu1169   2.034       .  S
O1165      C1174   1.259       .  A
O1165     Cu1170   1.967       .  S
O1167      C1172   1.294       .  A
O1167     Cu1170   2.063       .  S
O1168      C1171   1.299       .  A
O1168     Cu1170   2.057       .  S
Cu1169    Cu1170   2.656       .  S
C1171      C1302   1.491       .  S
C1172      C1319   1.493       .  S
C1173      C1207   1.467       .  S
C1174      C1263   1.459       .  S
O1175      C1185   1.281       .  A
O1175     Cu1183   2.043       .  S
O1176      C1186   1.281       .  A
O1176     Cu1183   2.046       .  S
O1177      C1187   1.280       .  A
O1177     Cu1183   2.023       .  S
O1178      C1188   1.279       .  A
O1179      C2628   1.273       .  A
O1180      C2627   1.274   1_455  A
O1180     Cu1184   1.984       .  S
O1181      C2626   1.284   1_455  A
O1181     Cu1184   2.061       .  S
O1182      C2625   1.283   1_455  A
O1182     Cu1184   2.056       .  S
Cu1183    Cu2624   2.369       .  S
Cu1184    Cu2623   2.369   1_455  S
C1185      C1403   1.503       .  S
C1185      O2622   1.283       .  A
C1186      C1386   1.504       .  S
C1186      O2621   1.284       .  A
C1187      C1221   1.478       .  S
C1187      O2620   1.274       .  A
C1188      C1235   1.471       .  S
C1188      O2619   1.273       .  A
C1189      C1190   1.407       .  A
C1189      C1194   1.401       .  A
C1189      H1196   1.083       .  S
C1190      C1191   1.404       .  A
C1191      C1192   1.400       .  A
C1191      N1198   1.428       .  S
C1192      C1193   1.407       .  A
C1192      H1197   1.079       .  S
C1193      C1194   1.403       .  A
C1194      N1195   1.432       .  S
N1195      H1199   1.045       .  S
N1195      H1200   1.046       .  S
N1198      H1201   1.046       .  S
N1198      H1202   1.045       .  S
C1203      C1204   1.400   1_545  A
C1203      C1208   1.406       .  A
C1203      H1210   1.084       .  S
C1204      C1205   1.408       .  A
C1205      C1206   1.403   1_565  A
C1205      N1212   1.437       .  S
C1208      N1209   1.436       .  S
N1209      H1213   1.046       .  S
N1212      H1215   1.045       .  S
N1212      H1216   1.044       .  S
C1217      C2658   1.400       .  A
C1217      C1222   1.402       .  A
C1217      H1224   1.084       .  S
C1218      C2657   1.400       .  A
C1218      C1219   1.419       .  A
C1219      C1220   1.402       .  A
C1219      N1226   1.438       .  S
C1220      C1221   1.402       .  A
C1220      H1225   1.084       .  S
C1221      C2662   1.414       .  A
C1222      C2661   1.414   1_455  A
C1222      N1223   1.438       .  S
N1223      H1227   1.046       .  S
N1223      H1228   1.044       .  S
N1226      H1229   1.041       .  S
N1226      H1230   1.045       .  S
C1231      C2672   1.396       .  A
C1231      C1236   1.398       .  A
C1231      H1238   1.082       .  S
C1232      C2671   1.396       .  A
C1232      C1233   1.409       .  A
C1233      C1234   1.403       .  A
C1233      N1240   1.437       .  S
C1234      C1235   1.403       .  A
C1234      H1239   1.084       .  S
C1235      C2676   1.412       .  A
C1236      C2675   1.412       .  A
C1236      N1237   1.436       .  S
N1237      H1241   1.042       .  S
N1237      H1242   1.045       .  S
N1240      H1243   1.045       .  S
N1240      H1244   1.046       .  S
C1245      C1246   1.407       .  A
C1245      C1250   1.417       .  A
C1245      H1252   1.084       .  S
C1246      C1247   1.424       .  A
C1247      C1248   1.413       .  A
C1247      N1254   1.437       .  S
C1248      C1249   1.404       .  A
C1248      H1253   1.084       .  S
C1249      C1250   1.416       .  A
C1250      N1251   1.432       .  S
N1251      H1255   1.046       .  S
N1251      H1256   1.044       .  S
N1254      H1257   1.041       .  S
N1254      H1258   1.046       .  S
C1259      C1260   1.411       .  A
C1259      C1264   1.400       .  A
C1259      H1266   1.080       .  S
C1260      C1261   1.405       .  A
C1261      C1262   1.400       .  A
C1261      N1268   1.434       .  S
C1262      C1263   1.406       .  A
C1262      H1267   1.083       .  S
C1263      C1264   1.400       .  A
C1264      N1265   1.438       .  S
N1265      H1269   1.046       .  S
N1265      H1270   1.045       .  S
C1273      C1274   1.402       .  A
C1273      C1278   1.405       .  A
C1273      H1280   1.084       .  S
C1274      C1275   1.414       .  A
C1275      C1276   1.389       .  A
C1275      N1282   1.434       .  S
C1276      C1277   1.397       .  A
C1276      H1281   1.085       .  S
C1277      C1278   1.408       .  A
C1278      N1279   1.436       .  S
N1279      H1283   1.046       .  S
N1279      H1284   1.045       .  S
N1282      H1285   1.044       .  S
N1282      H1286   1.041       .  S
C1287      C1288   1.410       .  A
C1287      C1292   1.419       .  A
C1287      H1294   1.084       .  S
C1288      C1289   1.417       .  A
C1289      C1290   1.407       .  A
C1289      N1296   1.435       .  S
C1290      C1291   1.402       .  A
C1290      H1295   1.082       .  S
C1291      C1292   1.412       .  A
C1292      N1293   1.436       .  S
N1293      H1297   1.046       .  S
N1293      H1298   1.043       .  S
N1296      H1299   1.043       .  S
N1296      H1300   1.043       .  S
C1301      C1302   1.407       .  A
C1301      C1306   1.400       .  A
C1301      H1308   1.084       .  S
C1302      C1303   1.416       .  A
C1303      C1304   1.408       .  A
C1303      N1310   1.437       .  S
C1304      C1305   1.403       .  A
C1304      H1309   1.083       .  S
C1305      C1306   1.416       .  A
C1306      N1307   1.440       .  S
N1310      H1313   1.045       .  S
N1310      H1314   1.046       .  S
C1315      H1322   1.083       .  S
C1316      C1317   1.415       .  A
C1317      C1318   1.403       .  A
C1317      N1324   1.431       .  S
C1318      C1319   1.403       .  A
C1318      H1323   1.082       .  S
C1319      C1320   1.418       .  A
N1321      H1325   1.046       .  S
N1321      H1326   1.045       .  S
N1324      H1327   1.044       .  S
N1324      H1328   1.046       .  S
C1329      C1330   1.410       .  A
C1329      C1334   1.405       .  A
C1329      H1336   1.083       .  S
C1330      C1331   1.413       .  A
C1331      C1332   1.409       .  A
C1331      N1338   1.438       .  S
C1332      C1333   1.412       .  A
C1332      H1337   1.083       .  S
C1333      C1334   1.413       .  A
C1334      N1335   1.438       .  S
N1335      H1339   1.046       .  S
N1335      H1340   1.045       .  S
N1338      H1341   1.045       .  S
N1338      H1342   1.046       .  S
C1343      C1344   1.401       .  A
C1343      C1348   1.408       .  A
C1343      H1350   1.084       .  S
C1344      C1345   1.421       .  A
C1345      C1346   1.410       .  A
C1345      N1352   1.436       .  S
C1346      C1347   1.399       .  A
C1346      H1351   1.082       .  S
C1347      C1348   1.417       .  A
C1348      N1349   1.430       .  S
N1349      H1353   1.045       .  S
N1349      H1354   1.043       .  S
N1352      H1355   1.046       .  S
N1352      H1356   1.044       .  S
C1357      C1362   1.394       .  A
C1357      H1364   1.084       .  S
C1358      C1359   1.409   1_556  A
C1359      C1360   1.385       .  A
C1359      N1366   1.431       .  S
C1360      C1361   1.397   1_554  A
C1360      H1365   1.084       .  S
C1362      N1363   1.432       .  S
N1363      H1367   1.046       .  S
N1363      H1368   1.045       .  S
N1366      H1369   1.045       .  S
N1366      H1370   1.043       .  S
C1371      C1372   1.402   1_554  A
C1371      C1376   1.398       .  A
C1371      H1378   1.084       .  S
C1373      C1374   1.400       .  A
C1373      N1380   1.438       .  S
C1374      H1379   1.083       .  S
C1375      C1376   1.414   1_556  A
C1376      N1377   1.438       .  S
N1377      H1381   1.045       .  S
N1377      H1382   1.043       .  S
N1380      H1383   1.046       .  S
N1380      H1384   1.046       .  S
C1385      C1386   1.405       .  A
C1385      C1390   1.415       .  A
C1385      H1392   1.084       .  S
C1386      C2467   1.413       .  A
C1387      C2466   1.413   1_456  A
C1387      C1388   1.418       .  A
C1387      N1394   1.437       .  S
C1388      C2469   1.410   1_456  A
C1388      H1393   1.082       .  S
C1389      C2468   1.410       .  A
C1389      C1390   1.424       .  A
C1390      N1391   1.438       .  S
N1391      H1395   1.046       .  S
N1391      H1396   1.043       .  S
N1394      H1397   1.046   1_455  S
N1394      H1398   1.046       .  S
C1399      C2840   1.410   1_455  A
C1399      C1404   1.416       .  A
C1399      H1406   1.083       .  S
C1400      C2524   1.520       .  S
C1400      C2839   1.410       .  A
C1401      C1402   1.413       .  A
C1401      N1408   1.437       .  S
C1402      H1407   1.084       .  S
C1403      C2844   1.412       .  A
C1404      C2843   1.412   1_455  A
C1404      N1405   1.436       .  S
N1405      H1409   1.046       .  S
N1405      H1410   1.045       .  S
N1408      H1411   1.043       .  S
N1408      H1412   1.045       .  S
C1413      C1418   1.398       .  A
C1413      H1420   1.084       .  S
C1414      C1415   1.414       .  A
C1415      C1416   1.395       .  A
C1415      N1422   1.438       .  S
C1416      C1417   1.400       .  A
C1416      H1421   1.084       .  S
C1418      N1419   1.438       .  S
N1419      H1423   1.046       .  S
N1419      H1424   1.043       .  S
N1422      H1425   1.043       .  S
N1422      H1426   1.045       .  S
C1427      C1428   1.397       .  A
C1427      C1432   1.388       .  A
C1427      H1434   1.084       .  S
C1429      C1430   1.391       .  A
C1429      N1436   1.440       .  S
C1430      H1435   1.085       .  S
C1431      C1432   1.407       .  A
C1432      N1433   1.432       .  S
N1433      H1437   1.045       .  S
N1433      H1438   1.046       .  S
N1436      H1439   1.043       .  S
N1436      H1440   1.046       .  S
C1441      C1749   1.529       .  S
C1441      C2162   1.400       .  A
C1442      C2508   1.462   1_554  S
C1442      C2161   1.400       .  A
C1442      C1443   1.422   1_554  A
C1443      C2095   1.480       .  S
C1444      C2165   1.417   1_554  A
C1445      C1774   1.480       .  S
C1445      C2164   1.417   1_546  A
C1445      C1446   1.421   1_556  A
C1446      C2081   1.460   1_554  S
O1447      C1457   1.283       .  A
O1447     Cu1815   2.041   1_554  S
O1448      C1458   1.285       .  A
O1448     Cu1455   2.046       .  S
O1449      C1459   1.270       .  A
O1449     Cu1455   1.969       .  S
O1450      C1460   1.268       .  A
O1450     Cu1455   1.942       .  S
O1451      C1460   1.278       .  A
O1451     Cu1456   2.006       .  S
O1452      C1459   1.280       .  A
O1452     Cu1456   2.021       .  S
O1453      C1458   1.275       .  A
O1453     Cu1456   1.996       .  S
O1454      C1457   1.275       .  A
O1454     Cu1816   1.986   1_554  S
Cu1455     O1807   2.041       .  S
Cu1455    Cu1456   2.373       .  S
Cu1456     O1814   1.986       .  S
C1457      C1690   1.496       .  S
C1458      C1704   1.496       .  S
C1459      C1732   1.459       .  S
C1460      C1718   1.441       .  S
O1461      C2191   1.282       .  A
O1461     Cu1469   2.034   1_554  S
O1462      C2192   1.282       .  A
O1462     Cu1829   2.037       .  S
O1463      C2193   1.270       .  A
O1463     Cu1469   1.957       .  S
O1464      C2194   1.274       .  A
O1464     Cu1469   1.985       .  S
O1465      C1474   1.277       .  A
O1465     Cu1470   2.005       .  S
O1466      C1473   1.276       .  A
O1466     Cu1470   1.993       .  S
O1467      C1472   1.275       .  A
O1467     Cu1830   1.986       .  S
O1468      C1471   1.274       .  A
O1468     Cu1470   1.982   1_554  S
Cu1469     O1822   2.037       .  S
Cu1469    Cu2190   2.375       .  S
Cu1470     O1827   1.986       .  S
Cu1470    Cu2189   2.375   1_545  S
C1471      C1665   1.479       .  S
C1471      O2181   1.282   1_545  A
C1472      C1676   1.496       .  S
C1472      O2182   1.282   1_545  A
C1473      C1791   1.441       .  S
C1473      O2183   1.270   1_545  A
C1474      C1777   1.460       .  S
C1474      O2184   1.274   1_545  A
C1475      C1634   1.462       .  S
C1475      C1476   1.408       .  A
C1475      C1480   1.388       .  A
C1476      C1477   1.403       .  A
C1476      H1481   1.083       .  S
C1477      C1648   1.502       .  S
C1477      C1478   1.412       .  A
C1478      C1479   1.418       .  A
C1478      H1482   1.076       .  S
C1479      C1620   1.481       .  S
C1479      C1480   1.388       .  A
C1480      H1483   1.086       .  S
O1484      C1494   1.275       .  A
O1484     Cu1492   1.998       .  S
O1485      C1495   1.277       .  A
O1485     Cu1492   2.003       .  S
O1486      C1496   1.282       .  A
O1486     Cu1492   2.050   1_655  S
O1487      C1497   1.283       .  A
O1488      C1497   1.281       .  A
O1489      C1496   1.280       .  A
O1489     Cu1493   2.037   1_655  S
O1490      C1495   1.277       .  A
O1490     Cu1493   2.008       .  S
O1491      C1494   1.276       .  A
O1491     Cu1493   1.992       .  S
Cu1492    Cu1493   2.373       .  S
C1494      C1592   1.462       .  S
C1495      C1578   1.472       .  S
C1496      C1651   1.495       .  S
C1497      C1606   1.505       .  S
C1498      C1564   1.471       .  S
C1498      C1499   1.391       .  A
C1498      C1503   1.416       .  A
C1499      C1500   1.393       .  A
C1499      H1504   1.085       .  S
C1500      C1550   1.481       .  S
C1500      C1501   1.423       .  A
C1501      C1502   1.404       .  A
C1501      H1505   1.081       .  S
C1502      C1609   1.510       .  S
C1502      C1503   1.402       .  A
C1503      H1506   1.074       .  S
O1507      C1517   1.315       .  A
O1507     Cu1515   2.194       .  S
O1508      C1518   1.312       .  A
O1508     Cu1515   2.172       .  S
O1509      C1519   1.233       .  A
O1509     Cu1515   2.165       .  S
O1510      C1520   1.236       .  A
O1510     Cu1515   2.133       .  S
O1511      C1520   1.232       .  A
O1511     Cu1516   1.800       .  S
O1512      C1519   1.240       .  A
O1512     Cu1516   1.879       .  S
O1513      C1518   1.310       .  A
O1513     Cu1516   2.051       .  S
O1514      C1517   1.303       .  A
O1514     Cu1516   2.050       .  S
Cu1515    Cu1516   2.944       .  S
C1517      C1707   1.495       .  S
C1518      C1693   1.495       .  S
C1519      C1637   1.454       .  S
C1520      C1553   1.463       .  S
O1521      C1531   1.296       .  A
O1521     Cu1529   2.139       .  S
O1522      C1532   1.296       .  A
O1522     Cu1529   2.149       .  S
O1523      C1533   1.239       .  A
O1523     Cu1529   2.156       .  S
O1524      C1534   1.274   1_545  A
O1524     Cu1529   2.034       .  S
O1525      C1534   1.259       .  A
O1525     Cu1530   1.967       .  S
O1526      C2253   1.250       .  A
O1526     Cu2250   1.876       .  S
O1527      C1532   1.294       .  A
O1527     Cu1530   2.063   1_545  S
O1528      C1531   1.299       .  A
O1528     Cu1530   2.057   1_545  S
Cu1529    Cu1530   2.656   1_545  S
Cu1530     O2246   1.876   1_565  S
C1531      C1662   1.491       .  S
C1532      C1679   1.493       .  S
C1533      C1567   1.467       .  S
C1533      O2246   1.250       .  A
C1534      C1623   1.459       .  S
O1535      C1545   1.281       .  A
O1535     Cu1543   2.043       .  S
O1536      C1546   1.281       .  A
O1536     Cu1543   2.046       .  S
O1537      C1547   1.280       .  A
O1537     Cu1543   2.023       .  S
O1538      C1548   1.279   1_655  A
O1538     Cu1903   2.010       .  S
O1539     Cu1904   1.972       .  S
O1540     Cu1544   1.984       .  S
O1541     Cu1544   2.061       .  S
O1542     Cu1544   2.056       .  S
Cu1543     O1898   2.010   1_554  S
Cu1544     O1899   1.972   1_554  S
C1545      C1763   1.503       .  S
C1546      C1746   1.504       .  S
C1547      C1581   1.478       .  S
C1548      C1595   1.471       .  S
C1549      C1550   1.407       .  A
C1549      C1554   1.401       .  A
C1549      H1556   1.083       .  S
C1550      C1551   1.404       .  A
C1551      C1552   1.400       .  A
C1551      N1558   1.428       .  S
C1552      C1553   1.407       .  A
C1552      H1557   1.079       .  S
C1553      C1554   1.403       .  A
C1554      N1555   1.432       .  S
N1555      H1559   1.045       .  S
N1555      H1560   1.046       .  S
N1558      H1561   1.046       .  S
N1558      H1562   1.045       .  S
C1563      C1564   1.400       .  A
C1563      C1568   1.406       .  A
C1563      H1570   1.084       .  S
C1564      C1565   1.408       .  A
C1565      C1566   1.403       .  A
C1565      N1572   1.437       .  S
C1566      C2287   1.400       .  A
C1566      H2291   1.084       .  S
C1567      C2286   1.400       .  A
C1567      C2288   1.408       .  A
C1568      C2287   1.408       .  A
C1568      N1569   1.436       .  S
N1569      H1573   1.046       .  S
N1569      H2294   1.045       .  S
H1571      C2286   1.084       .  S
N1572      H1575   1.045       .  S
N1572      H1576   1.044       .  S
H1574      N2289   1.045       .  S
C1577      C1582   1.402       .  A
C1577      H1584   1.084       .  S
C1578      C1579   1.419   1_455  A
C1579      C1580   1.402       .  A
C1579      N1586   1.438       .  S
C1580      C1581   1.402       .  A
C1580      H1585   1.084       .  S
C1582      N1583   1.438       .  S
N1583      H1587   1.046       .  S
N1583      H1588   1.044       .  S
N1586      H1589   1.041       .  S
N1586      H1590   1.045       .  S
C1591      C1596   1.398       .  A
C1591      H1598   1.082       .  S
C1592      C1593   1.409   1_455  A
C1593      C1594   1.403       .  A
C1593      N1600   1.437       .  S
C1594      C1595   1.403   1_655  A
C1594      H1599   1.084       .  S
C1596      N1597   1.436       .  S
N1597      H1601   1.042       .  S
N1597      H1602   1.045       .  S
N1600      H1603   1.045       .  S
N1600      H1604   1.046       .  S
C1605      C1606   1.407       .  A
C1605      C1610   1.417       .  A
C1605      H1612   1.084       .  S
C1606      C1607   1.424       .  A
C1607      C1608   1.413       .  A
C1607      N1614   1.437       .  S
C1608      C1609   1.404       .  A
C1608      H1613   1.084       .  S
C1609      C1610   1.416       .  A
C1610      N1611   1.432       .  S
N1611      H1615   1.046       .  S
N1611      H1616   1.044       .  S
N1614      H1617   1.041       .  S
N1614      H1618   1.046       .  S
C1619      C1620   1.411       .  A
C1619      C1624   1.400   1_545  A
C1619      H1626   1.080       .  S
C1620      C1621   1.405   1_545  A
C1621      C1622   1.400       .  A
C1621      N1628   1.434       .  S
C1622      C1623   1.406       .  A
C1622      H1627   1.083       .  S
C1623      C1624   1.400       .  A
C1624      N1625   1.438       .  S
N1625      H1629   1.046   1_565  S
N1625      H1630   1.045   1_565  S
N1628      H2351   1.045   1_565  S
N1628      H2352   1.045       .  S
H1631      N2348   1.045       .  S
H1632      N2348   1.045       .  S
C1633      C1634   1.402       .  A
C1633      C1638   1.405       .  A
C1633      H1640   1.084       .  S
C1634      C1635   1.414       .  A
C1635      C1636   1.389       .  A
C1635      N1642   1.434       .  S
C1636      C1637   1.397       .  A
C1636      H1641   1.085       .  S
C1637      C1638   1.408       .  A
C1638      N1639   1.436       .  S
N1639      H1643   1.046       .  S
N1639      H1644   1.045       .  S
N1642      H1645   1.044       .  S
N1642      H1646   1.041       .  S
C1647      C1648   1.410       .  A
C1647      C1652   1.419       .  A
C1647      H1654   1.084       .  S
C1648      C1649   1.417       .  A
C1649      C1650   1.407       .  A
C1649      N1656   1.435       .  S
C1650      C1651   1.402       .  A
C1650      H1655   1.082       .  S
C1651      C1652   1.412       .  A
C1652      N1653   1.436       .  S
N1653      H1657   1.046       .  S
N1653      H1658   1.043       .  S
N1656      H1659   1.043       .  S
N1656      H1660   1.043       .  S
C1661      C1662   1.407       .  A
C1661      C1666   1.400       .  A
C1661      H1668   1.084       .  S
C1662      C1663   1.416   1_545  A
C1663      C1664   1.408       .  A
C1663      N1670   1.437       .  S
C1664      C1665   1.403   1_565  A
C1664      H1669   1.083       .  S
C1665      C1666   1.416       .  A
C1666      N1667   1.440       .  S
N1667      H2391   1.046       .  S
N1667      H2392   1.043       .  S
N1670      H1673   1.045       .  S
N1670      H1674   1.046       .  S
H1671      N2387   1.046       .  S
H1672      N2387   1.043       .  S
C1675      C2396   1.406       .  A
C1675      C2400   1.410       .  A
C1675      H1682   1.083       .  S
C1676      C2395   1.406   1_545  A
C1676      C1677   1.415       .  A
C1677      C1678   1.403       .  A
C1677      N1684   1.431       .  S
C1678      C1679   1.403       .  A
C1678      H1683   1.082       .  S
C1679      C1680   1.418   1_545  A
C1680      C2395   1.410       .  A
C1680      N2401   1.433       .  S
N1681      C2400   1.433       .  S
N1681      H1685   1.046       .  S
N1681      H1686   1.045       .  S
N1684      H1687   1.044       .  S
N1684      H1688   1.046       .  S
C1689      C1690   1.410       .  A
C1689      C1694   1.405       .  A
C1689      H1696   1.083       .  S
C1690      C1691   1.413       .  A
C1691      C1692   1.409       .  A
C1691      N1698   1.438       .  S
C1692      C1693   1.412       .  A
C1692      H1697   1.083       .  S
C1693      C1694   1.413       .  A
C1694      N1695   1.438       .  S
N1695      H1699   1.046       .  S
N1695      H1700   1.045       .  S
N1698      H1701   1.045       .  S
N1698      H1702   1.046       .  S
C1703      C1704   1.401       .  A
C1703      C1708   1.408       .  A
C1703      H1710   1.084       .  S
C1704      C1705   1.421       .  A
C1705      C1706   1.410       .  A
C1705      N1712   1.436       .  S
C1706      C1707   1.399       .  A
C1706      H1711   1.082       .  S
C1707      C1708   1.417       .  A
C1708      N1709   1.430       .  S
N1709      H1713   1.045       .  S
N1709      H1714   1.043       .  S
N1712      H1715   1.046       .  S
N1712      H1716   1.044       .  S
C1717      C2078   1.397       .  A
C1717      C1722   1.394       .  A
C1717      H1724   1.084       .  S
C1718      C2077   1.397       .  A
C1718      C1719   1.409       .  A
C1719      C1720   1.385       .  A
C1719      N1726   1.431       .  S
C1720      C1721   1.397       .  A
C1720      H1725   1.084       .  S
C1721      C1806   1.460       .  S
C1721      C2082   1.405       .  A
C1722      C2081   1.405       .  A
C1722      N1723   1.432       .  S
N1723      H1727   1.046       .  S
N1723      H1728   1.045       .  S
N1726      H1729   1.045       .  S
N1726      H1730   1.043       .  S
C1731      C1732   1.402       .  A
C1731      C1736   1.398       .  A
C1731      H1738   1.084       .  S
C1732      C2093   1.402       .  A
C1733      C2092   1.402       .  A
C1733      C1734   1.400       .  A
C1733      N1740   1.438       .  S
C1734      C2095   1.406       .  A
C1734      H1739   1.083       .  S
C1735      C1803   1.480       .  S
C1735      C2094   1.406       .  A
C1735      C1736   1.414       .  A
C1736      N1737   1.438       .  S
N1737      H1741   1.045       .  S
N1737      H1742   1.043       .  S
N1740      H1743   1.046       .  S
N1740      H1744   1.046       .  S
C1745      C1746   1.405       .  A
C1745      C1750   1.415       .  A
C1745      H1752   1.084       .  S
C1747      C1748   1.418       .  A
C1747      N1754   1.437       .  S
C1748      H1753   1.082       .  S
C1749      C1750   1.424       .  A
C1750      N1751   1.438       .  S
N1751      H1755   1.046   1_655  S
N1751      H1756   1.043       .  S
N1754      H1757   1.046       .  S
N1754      H1758   1.046       .  S
C1759      C1764   1.416       .  A
C1759      H1766   1.083       .  S
C1760      C2121   1.422   1_554  A
C1761      C2120   1.422       .  A
C1761      C1762   1.413       .  A
C1761      N1768   1.437       .  S
C1762      C2123   1.407       .  A
C1762      H1767   1.084       .  S
C1763      C2122   1.407   1_554  A
C1764      N1765   1.436       .  S
N1765      H1769   1.046       .  S
N1765      H1770   1.045       .  S
N1768      H1771   1.043       .  S
N1768      H1772   1.045       .  S
C1773      C2854   1.403       .  A
C1773      C1778   1.398       .  A
C1773      H1780   1.084       .  S
C1774      C2853   1.403   1_545  A
C1774      C1775   1.414   1_556  A
C1775      C1776   1.395       .  A
C1775      N1782   1.438       .  S
C1776      C1777   1.400   1_554  A
C1776      H1781   1.084       .  S
C1777      C2858   1.413   1_545  A
C1778      C2857   1.413       .  A
C1778      N1779   1.438       .  S
N1779      H1783   1.046       .  S
N1779      H1784   1.043       .  S
N1782      H1785   1.043       .  S
N1782      H1786   1.045       .  S
C1787      C1788   1.397   1_564  A
C1787      C1792   1.388       .  A
C1787      H1794   1.084       .  S
C1788      C2162   1.462   1_556  S
C1788      C2869   1.416       .  A
C1789      C2868   1.416       .  A
C1789      C1790   1.391       .  A
C1789      N1796   1.440       .  S
C1790      C2871   1.395       .  A
C1790      H1795   1.085       .  S
C1791      C2870   1.395       .  A
C1791      C1792   1.407   1_546  A
C1792      N1793   1.432       .  S
N1793      H1797   1.045       .  S
N1793      H1798   1.046   1_565  S
N1796      H1799   1.043       .  S
N1796      H1800   1.046       .  S
C1801      C2109   1.529       .  S
C1801      C2522   1.400       .  A
C1802      C2868   1.462       .  S
C1802      C2521   1.400       .  A
C1802      C1803   1.422       .  A
C1804      C2525   1.417       .  A
C1805      C2134   1.480       .  S
C1805      C2524   1.417   1_545  A
C1805      C1806   1.421       .  A
O1807      C1817   1.283       .  A
O1808      C1818   1.285       .  A
O1808     Cu1815   2.046       .  S
O1809      C1819   1.270       .  A
O1809     Cu1815   1.969       .  S
O1810      C1820   1.268       .  A
O1810     Cu1815   1.942       .  S
O1811      C1820   1.278       .  A
O1811     Cu1816   2.006       .  S
O1812      C1819   1.280       .  A
O1812     Cu1816   2.021       .  S
O1813      C1818   1.275       .  A
O1813     Cu1816   1.997       .  S
O1814      C1817   1.275       .  A
Cu1815    Cu1816   2.373       .  S
C1817      C2050   1.496       .  S
C1818      C2064   1.496       .  S
C1819      C2092   1.459       .  S
C1820      C2078   1.441       .  S
O1821      C2551   1.282       .  A
O1821     Cu1829   2.034       .  S
O1822      C2552   1.282       .  A
O1823      C2553   1.270       .  A
O1823     Cu1829   1.957       .  S
O1824      C2554   1.274       .  A
O1824     Cu1829   1.985       .  S
O1825      C1834   1.277       .  A
O1825     Cu1830   2.005       .  S
O1826      C1833   1.276       .  A
O1826     Cu1830   1.993       .  S
O1827      C1832   1.275       .  A
O1828      C1831   1.274       .  A
O1828     Cu1830   1.982       .  S
Cu1829    Cu2550   2.375       .  S
Cu1830    Cu2549   2.375   1_545  S
C1831      C2025   1.479       .  S
C1831      O2541   1.282   1_545  A
C1832      C2036   1.496       .  S
C1832      O2542   1.282   1_545  A
C1833      C2151   1.441       .  S
C1833      O2543   1.270   1_545  A
C1834      C2137   1.460       .  S
C1834      O2544   1.274   1_545  A
C1835      C1994   1.462       .  S
C1835      C1836   1.408       .  A
C1835      C1840   1.388       .  A
C1836      C1837   1.403       .  A
C1836      H1841   1.083       .  S
C1837      C2008   1.502       .  S
C1837      C1838   1.412       .  A
C1838      C1839   1.418       .  A
C1838      H1842   1.076       .  S
C1839      C1980   1.481       .  S
C1839      C1840   1.388       .  A
C1840      H1843   1.086       .  S
O1844      C1854   1.275       .  A
O1844     Cu1852   1.998       .  S
O1845      C1855   1.277       .  A
O1845     Cu1852   2.003       .  S
O1846      C1856   1.282       .  A
O1846     Cu1852   2.050   1_655  S
O1847      C1857   1.283       .  A
O1848      C1857   1.281       .  A
O1849      C1856   1.280       .  A
O1849     Cu1853   2.037   1_655  S
O1850      C1855   1.277       .  A
O1850     Cu1853   2.008       .  S
O1851      C1854   1.276       .  A
O1851     Cu1853   1.992       .  S
Cu1852    Cu1853   2.373       .  S
C1854      C1952   1.462       .  S
C1855      C1938   1.472       .  S
C1856      C2011   1.495       .  S
C1857      C1966   1.505       .  S
C1858      C1924   1.471       .  S
C1858      C1859   1.391       .  A
C1858      C1863   1.416       .  A
C1859      C1860   1.393       .  A
C1859      H1864   1.085       .  S
C1860      C1910   1.481       .  S
C1860      C1861   1.423       .  A
C1861      C1862   1.404       .  A
C1861      H1865   1.081       .  S
C1862      C1969   1.510       .  S
C1862      C1863   1.402       .  A
C1863      H1866   1.074       .  S
O1867      C1877   1.315       .  A
O1867     Cu1875   2.194       .  S
O1868      C1878   1.312       .  A
O1868     Cu1875   2.172       .  S
O1869      C1879   1.233       .  A
O1869     Cu1875   2.165       .  S
O1870      C1880   1.236       .  A
O1870     Cu1875   2.133       .  S
O1871      C1880   1.232       .  A
O1871     Cu1876   1.800       .  S
O1872      C1879   1.240       .  A
O1872     Cu1876   1.879       .  S
O1873      C1878   1.310       .  A
O1873     Cu1876   2.051       .  S
O1874      C1877   1.303       .  A
O1874     Cu1876   2.050       .  S
Cu1875    Cu1876   2.944       .  S
C1877      C2067   1.495       .  S
C1878      C2053   1.495       .  S
C1879      C1997   1.454       .  S
C1880      C1913   1.463       .  S
O1881      C1891   1.296       .  A
O1881     Cu1889   2.139       .  S
O1882      C1892   1.296       .  A
O1882     Cu1889   2.149       .  S
O1883      C1893   1.239       .  A
O1883     Cu1889   2.156       .  S
O1884      C1894   1.274   1_545  A
O1884     Cu1889   2.034       .  S
O1885      C1894   1.259       .  A
O1885     Cu1890   1.967       .  S
O1886      C2613   1.250       .  A
O1886     Cu2610   1.876       .  S
O1887      C1892   1.294       .  A
O1887     Cu1890   2.063   1_545  S
O1888      C1891   1.299       .  A
O1888     Cu1890   2.057   1_545  S
Cu1889    Cu1890   2.656   1_545  S
Cu1890     O2606   1.876   1_565  S
C1891      C2022   1.491       .  S
C1892      C2039   1.493       .  S
C1893      C1927   1.467       .  S
C1893      O2606   1.250       .  A
C1894      C1983   1.459       .  S
O1895      C1905   1.281       .  A
O1895     Cu1903   2.043       .  S
O1896      C1906   1.281       .  A
O1896     Cu1903   2.046       .  S
O1897      C1907   1.280       .  A
O1897     Cu1903   2.023       .  S
O1898      C1908   1.279   1_655  A
O1900     Cu1904   1.984       .  S
O1901     Cu1904   2.061       .  S
O1902     Cu1904   2.056       .  S
C1905      C2123   1.503       .  S
C1906      C2106   1.504       .  S
C1907      C1941   1.478       .  S
C1908      C1955   1.471       .  S
C1909      C1910   1.407       .  A
C1909      C1914   1.401       .  A
C1909      H1916   1.083       .  S
C1910      C1911   1.404       .  A
C1911      C1912   1.400       .  A
C1911      N1918   1.428       .  S
C1912      C1913   1.407       .  A
C1912      H1917   1.079       .  S
C1913      C1914   1.403       .  A
C1914      N1915   1.432       .  S
N1915      H1919   1.045       .  S
N1915      H1920   1.046       .  S
N1918      H1921   1.046       .  S
N1918      H1922   1.045       .  S
C1923      C1924   1.400       .  A
C1923      C1928   1.406       .  A
C1923      H1930   1.084       .  S
C1924      C1925   1.408       .  A
C1925      C1926   1.403       .  A
C1925      N1932   1.437       .  S
C1926      C2647   1.400       .  A
C1926      H2651   1.084       .  S
C1927      C2646   1.400       .  A
C1927      C2648   1.408       .  A
C1928      C2647   1.408       .  A
C1928      N1929   1.436       .  S
N1929      H1933   1.046       .  S
N1929      H2654   1.045       .  S
H1931      C2646   1.084       .  S
N1932      H1935   1.045       .  S
N1932      H1936   1.044       .  S
H1934      N2649   1.045       .  S
C1937      C1942   1.402       .  A
C1937      H1944   1.084       .  S
C1938      C1939   1.419   1_455  A
C1939      C1940   1.402       .  A
C1939      N1946   1.438       .  S
C1940      C1941   1.402       .  A
C1940      H1945   1.084       .  S
C1942      N1943   1.438       .  S
N1943      H1947   1.046       .  S
N1943      H1948   1.044       .  S
N1946      H1949   1.041       .  S
N1946      H1950   1.045       .  S
C1951      C1956   1.398       .  A
C1951      H1958   1.082       .  S
C1952      C1953   1.409   1_455  A
C1953      C1954   1.403       .  A
C1953      N1960   1.437       .  S
C1954      C1955   1.403   1_655  A
C1954      H1959   1.084       .  S
C1956      N1957   1.436       .  S
N1957      H1961   1.042       .  S
N1957      H1962   1.045       .  S
N1960      H1963   1.045       .  S
N1960      H1964   1.046       .  S
C1965      C1966   1.407       .  A
C1965      C1970   1.417       .  A
C1965      H1972   1.084       .  S
C1966      C1967   1.424       .  A
C1967      C1968   1.413       .  A
C1967      N1974   1.437       .  S
C1968      C1969   1.404       .  A
C1968      H1973   1.084       .  S
C1969      C1970   1.416       .  A
C1970      N1971   1.432       .  S
N1971      H1975   1.046       .  S
N1971      H1976   1.044       .  S
N1974      H1977   1.041       .  S
N1974      H1978   1.046       .  S
C1979      C1980   1.411       .  A
C1979      C1984   1.400   1_545  A
C1979      H1986   1.080       .  S
C1980      C1981   1.405   1_545  A
C1981      C1982   1.400       .  A
C1981      N1988   1.434       .  S
C1982      C1983   1.406       .  A
C1982      H1987   1.083       .  S
C1983      C1984   1.400       .  A
C1984      N1985   1.438       .  S
N1985      H1989   1.046   1_565  S
N1985      H1990   1.045   1_565  S
N1988      H2711   1.045   1_565  S
N1988      H2712   1.045       .  S
H1991      N2708   1.045       .  S
H1992      N2708   1.045       .  S
C1993      C1994   1.402       .  A
C1993      C1998   1.405       .  A
C1993      H2000   1.084       .  S
C1994      C1995   1.414       .  A
C1995      C1996   1.389       .  A
C1995      N2002   1.434       .  S
C1996      C1997   1.397       .  A
C1996      H2001   1.085       .  S
C1997      C1998   1.408       .  A
C1998      N1999   1.436       .  S
N1999      H2003   1.046       .  S
N1999      H2004   1.045       .  S
N2002      H2005   1.044       .  S
N2002      H2006   1.041       .  S
C2007      C2008   1.410       .  A
C2007      C2012   1.419       .  A
C2007      H2014   1.084       .  S
C2008      C2009   1.417       .  A
C2009      C2010   1.407       .  A
C2009      N2016   1.435       .  S
C2010      C2011   1.402       .  A
C2010      H2015   1.082       .  S
C2011      C2012   1.412       .  A
C2012      N2013   1.436       .  S
N2013      H2017   1.046       .  S
N2013      H2018   1.043       .  S
N2016      H2019   1.043       .  S
N2016      H2020   1.043       .  S
C2021      C2022   1.407       .  A
C2021      C2026   1.400       .  A
C2021      H2028   1.084       .  S
C2022      C2023   1.416   1_545  A
C2023      C2024   1.408       .  A
C2023      N2030   1.437       .  S
C2024      C2025   1.403   1_565  A
C2024      H2029   1.083       .  S
C2025      C2026   1.416       .  A
C2026      N2027   1.440       .  S
N2027      H2751   1.046       .  S
N2027      H2752   1.043       .  S
N2030      H2033   1.045       .  S
N2030      H2034   1.046       .  S
H2031      N2747   1.046       .  S
H2032      N2747   1.043       .  S
C2035      C2756   1.406       .  A
C2035      C2760   1.410       .  A
C2035      H2042   1.083       .  S
C2036      C2755   1.406   1_545  A
C2036      C2037   1.415       .  A
C2037      C2038   1.403       .  A
C2037      N2044   1.431       .  S
C2038      C2039   1.403       .  A
C2038      H2043   1.082       .  S
C2039      C2040   1.418   1_545  A
C2040      C2755   1.410       .  A
C2040      N2761   1.433       .  S
N2041      C2760   1.433       .  S
N2041      H2045   1.046       .  S
N2041      H2046   1.045       .  S
N2044      H2047   1.044       .  S
N2044      H2048   1.046       .  S
C2049      C2050   1.410       .  A
C2049      C2054   1.405       .  A
C2049      H2056   1.083       .  S
C2050      C2051   1.413       .  A
C2051      C2052   1.409       .  A
C2051      N2058   1.438       .  S
C2052      C2053   1.412       .  A
C2052      H2057   1.083       .  S
C2053      C2054   1.413       .  A
C2054      N2055   1.438       .  S
N2055      H2059   1.046       .  S
N2055      H2060   1.045       .  S
N2058      H2061   1.045       .  S
N2058      H2062   1.046       .  S
C2063      C2064   1.401       .  A
C2063      C2068   1.408       .  A
C2063      H2070   1.084       .  S
C2064      C2065   1.421       .  A
C2065      C2066   1.410       .  A
C2065      N2072   1.436       .  S
C2066      C2067   1.399       .  A
C2066      H2071   1.082       .  S
C2067      C2068   1.417       .  A
C2068      N2069   1.430       .  S
N2069      H2073   1.045       .  S
N2069      H2074   1.043       .  S
N2072      H2075   1.046       .  S
N2072      H2076   1.044       .  S
C2077      C2082   1.394       .  A
C2077      H2084   1.084       .  S
C2078      C2079   1.409   1_556  A
C2079      C2080   1.385       .  A
C2079      N2086   1.431       .  S
C2080      C2081   1.397   1_554  A
C2080      H2085   1.084       .  S
C2082      N2083   1.432       .  S
N2083      H2087   1.046       .  S
N2083      H2088   1.045       .  S
N2086      H2089   1.045       .  S
N2086      H2090   1.043       .  S
C2091      C2092   1.402   1_554  A
C2091      C2096   1.398       .  A
C2091      H2098   1.084       .  S
C2093      C2094   1.400       .  A
C2093      N2100   1.438       .  S
C2094      H2099   1.083       .  S
C2095      C2096   1.414   1_556  A
C2096      N2097   1.438       .  S
N2097      H2101   1.045       .  S
N2097      H2102   1.043       .  S
N2100      H2103   1.046       .  S
N2100      H2104   1.046       .  S
C2105      C2106   1.405       .  A
C2105      C2110   1.415       .  A
C2105      H2112   1.084       .  S
C2107      C2108   1.418       .  A
C2107      N2114   1.437       .  S
C2108      H2113   1.082       .  S
C2109      C2110   1.424       .  A
C2110      N2111   1.438       .  S
N2111      H2115   1.046   1_655  S
N2111      H2116   1.043       .  S
N2114      H2117   1.046       .  S
N2114      H2118   1.046       .  S
C2119      C2124   1.416       .  A
C2119      H2126   1.083       .  S
C2121      C2122   1.413       .  A
C2121      N2128   1.437       .  S
C2122      H2127   1.084       .  S
C2124      N2125   1.436       .  S
N2125      H2129   1.046       .  S
N2125      H2130   1.045       .  S
N2128      H2131   1.043       .  S
N2128      H2132   1.045       .  S
C2133      C2494   1.403       .  A
C2133      C2138   1.398       .  A
C2133      H2140   1.084       .  S
C2134      C2493   1.403   1_545  A
C2134      C2135   1.414       .  A
C2135      C2136   1.395       .  A
C2135      N2142   1.438       .  S
C2136      C2137   1.400       .  A
C2136      H2141   1.084       .  S
C2137      C2498   1.413   1_545  A
C2138      C2497   1.413       .  A
C2138      N2139   1.438       .  S
N2139      H2143   1.046       .  S
N2139      H2144   1.043       .  S
N2142      H2145   1.043       .  S
N2142      H2146   1.045       .  S
C2147      C2148   1.397   1_565  A
C2147      C2152   1.388       .  A
C2147      H2154   1.084       .  S
C2148      C2522   1.462       .  S
C2148      C2509   1.416       .  A
C2149      C2508   1.416       .  A
C2149      C2150   1.391       .  A
C2149      N2156   1.440       .  S
C2150      C2511   1.395       .  A
C2150      H2155   1.085       .  S
C2151      C2510   1.395       .  A
C2151      C2152   1.407   1_545  A
C2152      N2153   1.432       .  S
N2153      H2157   1.045       .  S
N2153      H2158   1.046   1_565  S
N2156      H2159   1.043       .  S
N2156      H2160   1.046       .  S
C2161      C2469   1.529       .  S
C2162      C2163   1.422   1_544  A
C2163      C2815   1.480       .  S
C2165      C2494   1.480       .  S
C2165      C2166   1.421   1_556  A
C2166      C2801   1.460   1_554  S
O2167      C2177   1.283       .  A
O2167     Cu2535   2.041   1_554  S
O2168      C2178   1.285       .  A
O2168     Cu2175   2.046       .  S
O2169      C2179   1.270       .  A
O2169     Cu2175   1.969       .  S
O2170      C2180   1.268       .  A
O2170     Cu2175   1.942       .  S
O2171      C2180   1.278       .  A
O2171     Cu2176   2.006       .  S
O2172      C2179   1.280       .  A
O2172     Cu2176   2.021       .  S
O2173      C2178   1.275       .  A
O2173     Cu2176   1.996       .  S
O2174      C2177   1.275       .  A
O2174     Cu2536   1.986   1_554  S
Cu2175     O2527   2.041       .  S
Cu2175    Cu2176   2.373       .  S
Cu2176     O2534   1.986       .  S
C2177      C2410   1.496       .  S
C2178      C2424   1.496       .  S
C2179      C2452   1.459       .  S
C2180      C2438   1.441       .  S
O2181     Cu2189   2.034   1_554  S
O2182     Cu2549   2.037       .  S
O2183     Cu2189   1.957       .  S
O2184     Cu2189   1.985       .  S
O2185      C2194   1.277       .  A
O2185     Cu2190   2.005       .  S
O2186      C2193   1.276       .  A
O2186     Cu2190   1.993       .  S
O2187      C2192   1.275       .  A
O2187     Cu2550   1.986       .  S
O2188      C2191   1.274       .  A
O2188     Cu2190   1.982   1_554  S
Cu2189     O2542   2.037       .  S
Cu2190     O2547   1.986       .  S
C2191      C2385   1.479       .  S
C2192      C2396   1.496       .  S
C2193      C2511   1.441       .  S
C2194      C2497   1.460       .  S
C2195      C2354   1.462       .  S
C2195      C2196   1.408       .  A
C2195      C2200   1.388       .  A
C2196      C2197   1.403       .  A
C2196      H2201   1.083       .  S
C2197      C2368   1.502       .  S
C2197      C2198   1.412       .  A
C2198      C2199   1.418       .  A
C2198      H2202   1.076       .  S
C2199      C2340   1.481       .  S
C2199      C2200   1.388       .  A
C2200      H2203   1.086       .  S
O2204      C2214   1.275       .  A
O2204     Cu2212   1.998       .  S
O2205      C2215   1.277       .  A
O2205     Cu2212   2.003       .  S
O2206      C2216   1.282       .  A
O2206     Cu2212   2.050   1_655  S
O2207      C2217   1.283       .  A
O2208      C2217   1.281       .  A
O2209      C2216   1.280       .  A
O2209     Cu2213   2.037   1_655  S
O2210      C2215   1.277       .  A
O2210     Cu2213   2.008       .  S
O2211      C2214   1.276       .  A
O2211     Cu2213   1.992       .  S
Cu2212    Cu2213   2.373       .  S
C2214      C2312   1.462       .  S
C2215      C2298   1.472       .  S
C2216      C2371   1.495       .  S
C2217      C2326   1.505       .  S
C2218      C2284   1.471       .  S
C2218      C2219   1.391       .  A
C2218      C2223   1.416       .  A
C2219      C2220   1.393       .  A
C2219      H2224   1.085       .  S
C2220      C2270   1.481       .  S
C2220      C2221   1.423       .  A
C2221      C2222   1.404       .  A
C2221      H2225   1.081       .  S
C2222      C2329   1.510       .  S
C2222      C2223   1.402       .  A
C2223      H2226   1.074       .  S
O2227      C2237   1.315       .  A
O2227     Cu2235   2.194       .  S
O2228      C2238   1.312       .  A
O2228     Cu2235   2.172       .  S
O2229      C2239   1.233       .  A
O2229     Cu2235   2.165       .  S
O2230      C2240   1.236       .  A
O2230     Cu2235   2.133       .  S
O2231      C2240   1.232       .  A
O2231     Cu2236   1.800       .  S
O2232      C2239   1.240       .  A
O2232     Cu2236   1.879       .  S
O2233      C2238   1.310       .  A
O2233     Cu2236   2.051       .  S
O2234      C2237   1.303       .  A
O2234     Cu2236   2.050       .  S
Cu2235    Cu2236   2.944       .  S
C2237      C2427   1.495       .  S
C2238      C2413   1.495       .  S
C2239      C2357   1.454       .  S
C2240      C2273   1.463       .  S
O2241      C2251   1.296       .  A
O2241     Cu2249   2.139       .  S
O2242      C2252   1.296       .  A
O2242     Cu2249   2.149       .  S
O2243      C2253   1.239       .  A
O2243     Cu2249   2.156       .  S
O2244      C2254   1.274       .  A
O2244     Cu2249   2.034       .  S
O2245      C2254   1.259       .  A
O2245     Cu2250   1.967       .  S
O2247      C2252   1.294       .  A
O2247     Cu2250   2.063       .  S
O2248      C2251   1.299       .  A
O2248     Cu2250   2.057       .  S
Cu2249    Cu2250   2.656       .  S
C2251      C2382   1.491       .  S
C2252      C2399   1.493       .  S
C2253      C2287   1.467       .  S
C2254      C2343   1.459       .  S
O2255      C2265   1.281       .  A
O2255     Cu2263   2.043       .  S
O2256      C2266   1.281       .  A
O2256     Cu2263   2.046       .  S
O2257      C2267   1.280       .  A
O2257     Cu2263   2.023       .  S
O2258      C2268   1.279   1_655  A
O2258     Cu2623   2.010       .  S
O2259     Cu2624   1.972       .  S
O2260     Cu2264   1.984       .  S
O2261     Cu2264   2.061       .  S
O2262     Cu2264   2.056       .  S
Cu2263     O2618   2.010   1_554  S
Cu2264     O2619   1.972   1_554  S
C2265      C2483   1.503       .  S
C2266      C2466   1.504       .  S
C2267      C2301   1.478       .  S
C2268      C2315   1.471       .  S
C2269      C2270   1.407       .  A
C2269      C2274   1.401       .  A
C2269      H2276   1.083       .  S
C2270      C2271   1.404       .  A
C2271      C2272   1.400       .  A
C2271      N2278   1.428       .  S
C2272      C2273   1.407       .  A
C2272      H2277   1.079       .  S
C2273      C2274   1.403       .  A
C2274      N2275   1.432       .  S
N2275      H2279   1.045       .  S
N2275      H2280   1.046       .  S
N2278      H2281   1.046       .  S
N2278      H2282   1.045       .  S
C2283      C2284   1.400   1_545  A
C2283      C2288   1.406       .  A
C2283      H2290   1.084       .  S
C2284      C2285   1.408       .  A
C2285      C2286   1.403   1_565  A
C2285      N2292   1.437       .  S
C2288      N2289   1.436       .  S
N2289      H2293   1.046       .  S
N2292      H2295   1.045       .  S
N2292      H2296   1.044       .  S
C2297      C2302   1.402       .  A
C2297      H2304   1.084       .  S
C2298      C2299   1.419   1_455  A
C2299      C2300   1.402       .  A
C2299      N2306   1.438       .  S
C2300      C2301   1.402       .  A
C2300      H2305   1.084       .  S
C2302      N2303   1.438       .  S
N2303      H2307   1.046       .  S
N2303      H2308   1.044       .  S
N2306      H2309   1.041       .  S
N2306      H2310   1.045       .  S
C2311      C2316   1.398       .  A
C2311      H2318   1.082       .  S
C2312      C2313   1.409   1_455  A
C2313      C2314   1.403       .  A
C2313      N2320   1.437       .  S
C2314      C2315   1.403   1_655  A
C2314      H2319   1.084       .  S
C2316      N2317   1.436       .  S
N2317      H2321   1.042       .  S
N2317      H2322   1.045       .  S
N2320      H2323   1.045       .  S
N2320      H2324   1.046       .  S
C2325      C2326   1.407       .  A
C2325      C2330   1.417       .  A
C2325      H2332   1.084       .  S
C2326      C2327   1.424       .  A
C2327      C2328   1.413       .  A
C2327      N2334   1.437       .  S
C2328      C2329   1.404       .  A
C2328      H2333   1.084       .  S
C2329      C2330   1.416       .  A
C2330      N2331   1.432       .  S
N2331      H2335   1.046       .  S
N2331      H2336   1.044       .  S
N2334      H2337   1.041       .  S
N2334      H2338   1.046       .  S
C2339      C2340   1.411       .  A
C2339      C2344   1.400       .  A
C2339      H2346   1.080       .  S
C2340      C2341   1.405       .  A
C2341      C2342   1.400       .  A
C2341      N2348   1.434       .  S
C2342      C2343   1.406       .  A
C2342      H2347   1.083       .  S
C2343      C2344   1.400       .  A
C2344      N2345   1.438       .  S
N2345      H2349   1.046       .  S
N2345      H2350   1.045       .  S
C2353      C2354   1.402       .  A
C2353      C2358   1.405       .  A
C2353      H2360   1.084       .  S
C2354      C2355   1.414       .  A
C2355      C2356   1.389       .  A
C2355      N2362   1.434       .  S
C2356      C2357   1.397       .  A
C2356      H2361   1.085       .  S
C2357      C2358   1.408       .  A
C2358      N2359   1.436       .  S
N2359      H2363   1.046       .  S
N2359      H2364   1.045       .  S
N2362      H2365   1.044       .  S
N2362      H2366   1.041       .  S
C2367      C2368   1.410       .  A
C2367      C2372   1.419       .  A
C2367      H2374   1.084       .  S
C2368      C2369   1.417       .  A
C2369      C2370   1.407       .  A
C2369      N2376   1.435       .  S
C2370      C2371   1.402       .  A
C2370      H2375   1.082       .  S
C2371      C2372   1.412       .  A
C2372      N2373   1.436       .  S
N2373      H2377   1.046       .  S
N2373      H2378   1.043       .  S
N2376      H2379   1.043       .  S
N2376      H2380   1.043       .  S
C2381      C2382   1.407       .  A
C2381      C2386   1.400       .  A
C2381      H2388   1.084       .  S
C2382      C2383   1.416       .  A
C2383      C2384   1.408       .  A
C2383      N2390   1.437       .  S
C2384      C2385   1.403       .  A
C2384      H2389   1.083       .  S
C2385      C2386   1.416       .  A
C2386      N2387   1.440       .  S
N2390      H2393   1.045       .  S
N2390      H2394   1.046       .  S
C2395      H2402   1.083       .  S
C2396      C2397   1.415       .  A
C2397      C2398   1.403       .  A
C2397      N2404   1.431       .  S
C2398      C2399   1.403       .  A
C2398      H2403   1.082       .  S
C2399      C2400   1.418       .  A
N2401      H2405   1.046       .  S
N2401      H2406   1.045       .  S
N2404      H2407   1.044       .  S
N2404      H2408   1.046       .  S
C2409      C2410   1.410       .  A
C2409      C2414   1.405       .  A
C2409      H2416   1.083       .  S
C2410      C2411   1.413       .  A
C2411      C2412   1.409       .  A
C2411      N2418   1.438       .  S
C2412      C2413   1.412       .  A
C2412      H2417   1.083       .  S
C2413      C2414   1.413       .  A
C2414      N2415   1.438       .  S
N2415      H2419   1.046       .  S
N2415      H2420   1.045       .  S
N2418      H2421   1.045       .  S
N2418      H2422   1.046       .  S
C2423      C2424   1.401       .  A
C2423      C2428   1.408       .  A
C2423      H2430   1.084       .  S
C2424      C2425   1.421       .  A
C2425      C2426   1.410       .  A
C2425      N2432   1.436       .  S
C2426      C2427   1.399       .  A
C2426      H2431   1.082       .  S
C2427      C2428   1.417       .  A
C2428      N2429   1.430       .  S
N2429      H2433   1.045       .  S
N2429      H2434   1.043       .  S
N2432      H2435   1.046       .  S
N2432      H2436   1.044       .  S
C2437      C2798   1.397       .  A
C2437      C2442   1.394       .  A
C2437      H2444   1.084       .  S
C2438      C2797   1.397       .  A
C2438      C2439   1.409       .  A
C2439      C2440   1.385       .  A
C2439      N2446   1.431       .  S
C2440      C2441   1.397       .  A
C2440      H2445   1.084       .  S
C2441      C2526   1.460       .  S
C2441      C2802   1.405       .  A
C2442      C2801   1.405       .  A
C2442      N2443   1.432       .  S
N2443      H2447   1.046       .  S
N2443      H2448   1.045       .  S
N2446      H2449   1.045       .  S
N2446      H2450   1.043       .  S
C2451      C2452   1.402       .  A
C2451      C2456   1.398       .  A
C2451      H2458   1.084       .  S
C2452      C2813   1.402       .  A
C2453      C2812   1.402       .  A
C2453      C2454   1.400       .  A
C2453      N2460   1.438       .  S
C2454      C2815   1.406       .  A
C2454      H2459   1.083       .  S
C2455      C2523   1.480       .  S
C2455      C2814   1.406       .  A
C2455      C2456   1.414       .  A
C2456      N2457   1.438       .  S
N2457      H2461   1.045       .  S
N2457      H2462   1.043       .  S
N2460      H2463   1.046       .  S
N2460      H2464   1.046       .  S
C2465      C2466   1.405       .  A
C2465      C2470   1.415       .  A
C2465      H2472   1.084       .  S
C2467      C2468   1.418       .  A
C2467      N2474   1.437       .  S
C2468      H2473   1.082       .  S
C2469      C2470   1.424       .  A
C2470      N2471   1.438       .  S
N2471      H2475   1.046   1_655  S
N2471      H2476   1.043       .  S
N2474      H2477   1.046       .  S
N2474      H2478   1.046       .  S
C2479      C2484   1.416       .  A
C2479      H2486   1.083       .  S
C2480      C2841   1.422   1_554  A
C2481      C2840   1.422       .  A
C2481      C2482   1.413       .  A
C2481      N2488   1.437       .  S
C2482      C2843   1.407       .  A
C2482      H2487   1.084       .  S
C2483      C2842   1.407   1_554  A
C2484      N2485   1.436       .  S
N2485      H2489   1.046       .  S
N2485      H2490   1.045       .  S
N2488      H2491   1.043       .  S
N2488      H2492   1.045       .  S
C2493      C2498   1.398       .  A
C2493      H2500   1.084       .  S
C2494      C2495   1.414   1_556  A
C2495      C2496   1.395       .  A
C2495      N2502   1.438       .  S
C2496      C2497   1.400   1_554  A
C2496      H2501   1.084       .  S
C2498      N2499   1.438       .  S
N2499      H2503   1.046       .  S
N2499      H2504   1.043       .  S
N2502      H2505   1.043       .  S
N2502      H2506   1.045       .  S
C2507      C2508   1.397   1_554  A
C2507      C2512   1.388       .  A
C2507      H2514   1.084       .  S
C2509      C2510   1.391       .  A
C2509      N2516   1.440       .  S
C2510      H2515   1.085       .  S
C2511      C2512   1.407   1_556  A
C2512      N2513   1.432       .  S
N2513      H2517   1.045       .  S
N2513      H2518   1.046       .  S
N2516      H2519   1.043       .  S
N2516      H2520   1.046       .  S
C2521      C2829   1.529       .  S
C2522      C2523   1.422   1_545  A
C2525      C2854   1.480       .  S
C2525      C2526   1.421       .  A
O2527      C2537   1.283       .  A
O2528      C2538   1.285       .  A
O2528     Cu2535   2.046       .  S
O2529      C2539   1.270       .  A
O2529     Cu2535   1.969       .  S
O2530      C2540   1.268       .  A
O2530     Cu2535   1.942       .  S
O2531      C2540   1.278       .  A
O2531     Cu2536   2.006       .  S
O2532      C2539   1.280       .  A
O2532     Cu2536   2.021       .  S
O2533      C2538   1.275       .  A
O2533     Cu2536   1.997       .  S
O2534      C2537   1.275       .  A
Cu2535    Cu2536   2.373       .  S
C2537      C2770   1.496       .  S
C2538      C2784   1.496       .  S
C2539      C2812   1.459       .  S
C2540      C2798   1.441       .  S
O2541     Cu2549   2.034       .  S
O2543     Cu2549   1.957       .  S
O2544     Cu2549   1.985       .  S
O2545      C2554   1.277       .  A
O2545     Cu2550   2.005       .  S
O2546      C2553   1.276       .  A
O2546     Cu2550   1.993       .  S
O2547      C2552   1.275       .  A
O2548      C2551   1.274       .  A
O2548     Cu2550   1.982       .  S
C2551      C2745   1.479       .  S
C2552      C2756   1.496       .  S
C2553      C2871   1.441       .  S
C2554      C2857   1.460       .  S
C2555      C2714   1.462       .  S
C2555      C2556   1.408       .  A
C2555      C2560   1.388       .  A
C2556      C2557   1.403       .  A
C2556      H2561   1.083       .  S
C2557      C2728   1.502       .  S
C2557      C2558   1.412       .  A
C2558      C2559   1.418       .  A
C2558      H2562   1.076       .  S
C2559      C2700   1.481       .  S
C2559      C2560   1.388       .  A
C2560      H2563   1.086       .  S
O2564      C2574   1.275       .  A
O2564     Cu2572   1.998       .  S
O2565      C2575   1.277       .  A
O2565     Cu2572   2.003       .  S
O2566      C2576   1.282       .  A
O2566     Cu2572   2.050   1_655  S
O2567      C2577   1.283       .  A
O2568      C2577   1.281       .  A
O2569      C2576   1.280       .  A
O2569     Cu2573   2.037   1_655  S
O2570      C2575   1.277       .  A
O2570     Cu2573   2.008       .  S
O2571      C2574   1.276       .  A
O2571     Cu2573   1.992       .  S
Cu2572    Cu2573   2.373       .  S
C2574      C2672   1.462       .  S
C2575      C2658   1.472       .  S
C2576      C2731   1.495       .  S
C2577      C2686   1.505       .  S
C2578      C2644   1.471       .  S
C2578      C2579   1.391       .  A
C2578      C2583   1.416       .  A
C2579      C2580   1.393       .  A
C2579      H2584   1.085       .  S
C2580      C2630   1.481       .  S
C2580      C2581   1.423       .  A
C2581      C2582   1.404       .  A
C2581      H2585   1.081       .  S
C2582      C2689   1.510       .  S
C2582      C2583   1.402       .  A
C2583      H2586   1.074       .  S
O2587      C2597   1.315       .  A
O2587     Cu2595   2.194       .  S
O2588      C2598   1.312       .  A
O2588     Cu2595   2.172       .  S
O2589      C2599   1.233       .  A
O2589     Cu2595   2.165       .  S
O2590      C2600   1.236       .  A
O2590     Cu2595   2.133       .  S
O2591      C2600   1.232       .  A
O2591     Cu2596   1.800       .  S
O2592      C2599   1.240       .  A
O2592     Cu2596   1.879       .  S
O2593      C2598   1.310       .  A
O2593     Cu2596   2.051       .  S
O2594      C2597   1.303       .  A
O2594     Cu2596   2.050       .  S
Cu2595    Cu2596   2.944       .  S
C2597      C2787   1.495       .  S
C2598      C2773   1.495       .  S
C2599      C2717   1.454       .  S
C2600      C2633   1.463       .  S
O2601      C2611   1.296       .  A
O2601     Cu2609   2.139       .  S
O2602      C2612   1.296       .  A
O2602     Cu2609   2.149       .  S
O2603      C2613   1.239       .  A
O2603     Cu2609   2.156       .  S
O2604      C2614   1.274       .  A
O2604     Cu2609   2.034       .  S
O2605      C2614   1.259       .  A
O2605     Cu2610   1.967       .  S
O2607      C2612   1.294       .  A
O2607     Cu2610   2.063       .  S
O2608      C2611   1.299       .  A
O2608     Cu2610   2.057       .  S
Cu2609    Cu2610   2.656       .  S
C2611      C2742   1.491       .  S
C2612      C2759   1.493       .  S
C2613      C2647   1.467       .  S
C2614      C2703   1.459       .  S
O2615      C2625   1.281       .  A
O2615     Cu2623   2.043       .  S
O2616      C2626   1.281       .  A
O2616     Cu2623   2.046       .  S
O2617      C2627   1.280       .  A
O2617     Cu2623   2.023       .  S
O2618      C2628   1.279   1_655  A
O2620     Cu2624   1.984       .  S
O2621     Cu2624   2.061       .  S
O2622     Cu2624   2.056       .  S
C2625      C2843   1.503       .  S
C2626      C2826   1.504       .  S
C2627      C2661   1.478       .  S
C2628      C2675   1.471       .  S
C2629      C2630   1.407       .  A
C2629      C2634   1.401       .  A
C2629      H2636   1.083       .  S
C2630      C2631   1.404       .  A
C2631      C2632   1.400       .  A
C2631      N2638   1.428       .  S
C2632      C2633   1.407       .  A
C2632      H2637   1.079       .  S
C2633      C2634   1.403       .  A
C2634      N2635   1.432       .  S
N2635      H2639   1.045       .  S
N2635      H2640   1.046       .  S
N2638      H2641   1.046       .  S
N2638      H2642   1.045       .  S
C2643      C2644   1.400   1_545  A
C2643      C2648   1.406       .  A
C2643      H2650   1.084       .  S
C2644      C2645   1.408       .  A
C2645      C2646   1.403   1_565  A
C2645      N2652   1.437       .  S
C2648      N2649   1.436       .  S
N2649      H2653   1.046       .  S
N2652      H2655   1.045       .  S
N2652      H2656   1.044       .  S
C2657      C2662   1.402       .  A
C2657      H2664   1.084       .  S
C2658      C2659   1.419   1_455  A
C2659      C2660   1.402       .  A
C2659      N2666   1.438       .  S
C2660      C2661   1.402       .  A
C2660      H2665   1.084       .  S
C2662      N2663   1.438       .  S
N2663      H2667   1.046       .  S
N2663      H2668   1.044       .  S
N2666      H2669   1.041       .  S
N2666      H2670   1.045       .  S
C2671      C2676   1.398       .  A
C2671      H2678   1.082       .  S
C2672      C2673   1.409   1_455  A
C2673      C2674   1.403       .  A
C2673      N2680   1.437       .  S
C2674      C2675   1.403   1_655  A
C2674      H2679   1.084       .  S
C2676      N2677   1.436       .  S
N2677      H2681   1.042       .  S
N2677      H2682   1.045       .  S
N2680      H2683   1.045       .  S
N2680      H2684   1.046       .  S
C2685      C2686   1.407       .  A
C2685      C2690   1.417       .  A
C2685      H2692   1.084       .  S
C2686      C2687   1.424       .  A
C2687      C2688   1.413       .  A
C2687      N2694   1.437       .  S
C2688      C2689   1.404       .  A
C2688      H2693   1.084       .  S
C2689      C2690   1.416       .  A
C2690      N2691   1.432       .  S
N2691      H2695   1.046       .  S
N2691      H2696   1.044       .  S
N2694      H2697   1.041       .  S
N2694      H2698   1.046       .  S
C2699      C2700   1.411       .  A
C2699      C2704   1.400       .  A
C2699      H2706   1.080       .  S
C2700      C2701   1.405       .  A
C2701      C2702   1.400       .  A
C2701      N2708   1.434       .  S
C2702      C2703   1.406       .  A
C2702      H2707   1.083       .  S
C2703      C2704   1.400       .  A
C2704      N2705   1.438       .  S
N2705      H2709   1.046       .  S
N2705      H2710   1.045       .  S
C2713      C2714   1.402       .  A
C2713      C2718   1.405       .  A
C2713      H2720   1.084       .  S
C2714      C2715   1.414       .  A
C2715      C2716   1.389       .  A
C2715      N2722   1.434       .  S
C2716      C2717   1.397       .  A
C2716      H2721   1.085       .  S
C2717      C2718   1.408       .  A
C2718      N2719   1.436       .  S
N2719      H2723   1.046       .  S
N2719      H2724   1.045       .  S
N2722      H2725   1.044       .  S
N2722      H2726   1.041       .  S
C2727      C2728   1.410       .  A
C2727      C2732   1.419       .  A
C2727      H2734   1.084       .  S
C2728      C2729   1.417       .  A
C2729      C2730   1.407       .  A
C2729      N2736   1.435       .  S
C2730      C2731   1.402       .  A
C2730      H2735   1.082       .  S
C2731      C2732   1.412       .  A
C2732      N2733   1.436       .  S
N2733      H2737   1.046       .  S
N2733      H2738   1.043       .  S
N2736      H2739   1.043       .  S
N2736      H2740   1.043       .  S
C2741      C2742   1.407       .  A
C2741      C2746   1.400       .  A
C2741      H2748   1.084       .  S
C2742      C2743   1.416       .  A
C2743      C2744   1.408       .  A
C2743      N2750   1.437       .  S
C2744      C2745   1.403       .  A
C2744      H2749   1.083       .  S
C2745      C2746   1.416       .  A
C2746      N2747   1.440       .  S
N2750      H2753   1.045       .  S
N2750      H2754   1.046       .  S
C2755      H2762   1.083       .  S
C2756      C2757   1.415       .  A
C2757      C2758   1.403       .  A
C2757      N2764   1.431       .  S
C2758      C2759   1.403       .  A
C2758      H2763   1.082       .  S
C2759      C2760   1.418       .  A
N2761      H2765   1.046       .  S
N2761      H2766   1.045       .  S
N2764      H2767   1.044       .  S
N2764      H2768   1.046       .  S
C2769      C2770   1.410       .  A
C2769      C2774   1.405       .  A
C2769      H2776   1.083       .  S
C2770      C2771   1.413       .  A
C2771      C2772   1.409       .  A
C2771      N2778   1.438       .  S
C2772      C2773   1.412       .  A
C2772      H2777   1.083       .  S
C2773      C2774   1.413       .  A
C2774      N2775   1.438       .  S
N2775      H2779   1.046       .  S
N2775      H2780   1.045       .  S
N2778      H2781   1.045       .  S
N2778      H2782   1.046       .  S
C2783      C2784   1.401       .  A
C2783      C2788   1.408       .  A
C2783      H2790   1.084       .  S
C2784      C2785   1.421       .  A
C2785      C2786   1.410       .  A
C2785      N2792   1.436       .  S
C2786      C2787   1.399       .  A
C2786      H2791   1.082       .  S
C2787      C2788   1.417       .  A
C2788      N2789   1.430       .  S
N2789      H2793   1.045       .  S
N2789      H2794   1.043       .  S
N2792      H2795   1.046       .  S
N2792      H2796   1.044       .  S
C2797      C2802   1.394       .  A
C2797      H2804   1.084       .  S
C2798      C2799   1.409   1_556  A
C2799      C2800   1.385       .  A
C2799      N2806   1.431       .  S
C2800      C2801   1.397   1_554  A
C2800      H2805   1.084       .  S
C2802      N2803   1.432       .  S
N2803      H2807   1.046       .  S
N2803      H2808   1.045       .  S
N2806      H2809   1.045       .  S
N2806      H2810   1.043       .  S
C2811      C2812   1.402   1_554  A
C2811      C2816   1.398       .  A
C2811      H2818   1.084       .  S
C2813      C2814   1.400       .  A
C2813      N2820   1.438       .  S
C2814      H2819   1.083       .  S
C2815      C2816   1.414   1_556  A
C2816      N2817   1.438       .  S
N2817      H2821   1.045       .  S
N2817      H2822   1.043       .  S
N2820      H2823   1.046       .  S
N2820      H2824   1.046       .  S
C2825      C2826   1.405       .  A
C2825      C2830   1.415       .  A
C2825      H2832   1.084       .  S
C2827      C2828   1.418       .  A
C2827      N2834   1.437       .  S
C2828      H2833   1.082       .  S
C2829      C2830   1.424       .  A
C2830      N2831   1.438       .  S
N2831      H2835   1.046   1_655  S
N2831      H2836   1.043       .  S
N2834      H2837   1.046       .  S
N2834      H2838   1.046       .  S
C2839      C2844   1.416       .  A
C2839      H2846   1.083       .  S
C2841      C2842   1.413       .  A
C2841      N2848   1.437       .  S
C2842      H2847   1.084       .  S
C2844      N2845   1.436       .  S
N2845      H2849   1.046       .  S
N2845      H2850   1.045       .  S
N2848      H2851   1.043       .  S
N2848      H2852   1.045       .  S
C2853      C2858   1.398       .  A
C2853      H2860   1.084       .  S
C2854      C2855   1.414       .  A
C2855      C2856   1.395       .  A
C2855      N2862   1.438       .  S
C2856      C2857   1.400       .  A
C2856      H2861   1.084       .  S
C2858      N2859   1.438       .  S
N2859      H2863   1.046       .  S
N2859      H2864   1.043       .  S
N2862      H2865   1.043       .  S
N2862      H2866   1.045       .  S
C2867      C2868   1.397       .  A
C2867      C2872   1.388       .  A
C2867      H2874   1.084       .  S
C2869      C2870   1.391       .  A
C2869      N2876   1.440       .  S
C2870      H2875   1.085       .  S
C2871      C2872   1.407       .  A
C2872      N2873   1.432       .  S
N2873      H2877   1.045       .  S
N2873      H2878   1.046       .  S
N2876      H2879   1.043       .  S
N2876      H2880   1.046       .  S
