geometry optimzed in LAMMPS
_audit_creation_date              2020-11-30 
_audit_creation_method            'lammps2cif' 
_symmetry_space_group_name_H-M    'P1' 
_symmetry_Int_Tables_number       1 
_symmetry_cell_setting            triclinic 
loop_ 
_symmetry_equiv_pos_as_xyz 
  x,y,z 
_cell_length_a                    32.20156362 
_cell_length_b                    32.83718155056281 
_cell_length_c                    34.82002274430636 
_cell_angle_alpha                 89.84970669744231 
_cell_angle_beta                  89.65204157635215 
_cell_angle_gamma                 89.85718383153572 
loop_ 
_atom_site_label 
_atom_site_type_symbol 
_atom_site_fract_x 
_atom_site_fract_y 
_atom_site_fract_z 
_atom_site_charge 
Zr1        Zr  0.98116610  0.99230284  0.07584944     2.17500
O2          O  0.99133150  0.99923073  0.14499702    -0.52100
O3          O  0.93251997  0.93886564  0.09481912    -0.75300
O4          O  0.94461786  0.05146933  0.10503141    -0.82100
O5          O  0.06906629  0.90641763  0.06312635    -0.83800
O6          O  0.92120333  0.09322793  0.05716633    -0.79500
O7          O  0.03423907  0.94818976  0.10417394    -0.91100
O8          O  0.89388514  0.95267992  0.04449499    -0.77100
O9          O  0.92811667  0.00413508  0.02884460    -0.86500
O10         O  0.98648434  0.93668993  0.03151998    -0.86200
O11         O  0.99664342  0.05601596  0.04418411    -0.73000
O12         O  0.04992076  0.99426803  0.04855692    -0.85100
Zr13       Zr  0.01791567  0.01440217  0.92437035     2.26400
Zr14       Zr  0.94436402  0.06646001  0.99561847     2.06300
Zr15       Zr  0.05415115  0.93992397  0.00268525     2.10000
Zr16       Zr  0.93381038  0.94866614  0.98559810     1.78800
O17         O  0.12862522  0.93872782  0.01428754    -0.93900
O18         O  0.86335755  0.96076630  0.96289583    -0.41700
O19         O  0.00127911  0.95062852  0.95554533    -0.78400
O20         O  0.94859420  0.01016252  0.95179056    -0.97100
O21         O  0.01300784  0.06978212  0.96848967    -0.90400
O22         O  0.07004794  0.00321057  0.97195177    -0.93200
C23         C  0.90173050  0.93049416  0.07362286     1.00600
C24         C  0.05993998  0.91888716  0.09688222     1.13500
C25         C  0.92712707  0.08445904  0.09268795     1.04300
O26         O  0.86907519  0.07291836  0.99339505    -0.95400
O27         O  0.92031326  0.08871376  0.93188366    -0.91100
O28         O  0.96262415  0.05353211  0.89109111    -0.84200
C29         C  0.93116719  0.07721961  0.89795308     1.10900
O30         O  0.08986903  0.08123697  0.07823637    -0.97300
Zr31       Zr  0.06386903  0.05722514  0.01677276     1.88900
O32         O  0.07763360  0.05841155  0.90589180    -0.74000
O33         O  0.95786276  0.13936478  0.99231030    -0.53200
O34         O  0.05570173  0.13044372  0.02501517    -0.97900
O35         O  0.13683512  0.04298867  0.02987791    -0.55100
O36         O  0.09997736  0.08347678  0.96252617    -0.74500
C37         C  0.10227875  0.08043282  0.92607030     0.97800
O38         O  0.02731651  0.01221193  0.85483668    -0.63300
O39         O  0.04536427  0.86752558  0.98996385    -0.58100
O40         O  0.04049320  0.94720494  0.89950057    -0.94800
O41         O  0.08678242  0.92251054  0.94228985    -0.93200
O42         O  0.93185375  0.87541660  0.99658319    -0.93600
O43         O  0.91127480  0.91058292  0.92975664    -0.92400
C44         C  0.06894503  0.92167064  0.90968521     1.16700
H45         H  0.98291881  0.91079447  0.04431797     0.32600
H46         H  0.92670718  0.01057400  0.93304441     0.43500
H47         H  0.09747016  0.00206425  0.96060292     0.37000
H48         H  0.99765479  0.07838595  0.06201271     0.33500
H49         H  0.84735360  0.93666597  0.97153298     0.25300
H50         H  0.92996480  0.15211545  0.99247360     0.31200
H51         H  0.05290273  0.14148107  0.99867000     0.37100
H52         H  0.95853169  0.86520573  0.98609145     0.31600
H53         H  0.07378308  0.85601734  0.99108740     0.30500
H54         H  0.13643754  0.90958342  0.01287170     0.32100
H55         H  0.14886921  0.03391186  0.00510339     0.31100
H56         H  0.91876021  0.92808157  0.90758037     0.35100
H57         H  0.02632303  0.04096629  0.84625422     0.27800
H58         H  0.96322907  0.99980122  0.15669788     0.32100
H59         H  0.07429809  0.06525381  0.09768666     0.34900
H60         H  0.03120939  0.85648030  0.01303720     0.27500
H61         H  0.05661153  0.00405540  0.85058559     0.40400
H62         H  0.85881666  0.05708064  0.01573397     0.30500
H63         H  0.85274998  0.98326925  0.97911063     0.38100
H64         H  0.13656050  0.01816182  0.04607694     0.29900
H65         H  0.96971266  0.14635551  0.01761670     0.30000
H66         H  0.00278155  0.02686088  0.14895302     0.30300
C67         C  0.08605278  0.38532442  0.10175767     0.79500
N68         N  0.11926098  0.38278235  0.12608610    -0.78800
C69         C  0.12392197  0.34859836  0.14826901     0.81900
N70         N  0.09613429  0.31790298  0.14542708    -0.78800
C71         C  0.06316730  0.32024997  0.12179365     0.82000
N72         N  0.05871454  0.35388340  0.09962975    -0.80500
C73         C  0.92334937  0.11932664  0.11896729     0.79500
N74         N  0.95318122  0.14829803  0.11536171    -0.78800
C75         C  0.95109085  0.18336606  0.13549126     0.81900
N76         N  0.91841730  0.18966890  0.15922927    -0.78800
C77         C  0.88779295  0.16165391  0.16302229     0.82000
N78         N  0.88955436  0.12636967  0.14208236    -0.80500
C79         C  0.82630145  0.15789079  0.38146275     0.79500
N80         N  0.86365871  0.13785584  0.38468442    -0.78800
C81         C  0.87496912  0.12336118  0.42009172     0.81900
N82         N  0.84960671  0.12921156  0.45069544    -0.78800
C83         C  0.81277452  0.14826364  0.44792730     0.82000
N84         N  0.80141436  0.16218864  0.41299477    -0.80500
C85         C  0.67450967  0.13524628  0.64035405     0.79500
N86         N  0.63920094  0.11596322  0.62816670    -0.78800
C87         C  0.63695084  0.10380269  0.59073283     0.81900
N88         N  0.66857410  0.11256626  0.56634966    -0.78800
C89         C  0.70281587  0.13204458  0.57804656     0.82000
N90         N  0.70585774  0.14334645  0.61513443    -0.80500
Zr91       Zr  0.66777994  0.27538028  0.22075118     2.17500
O92         O  0.59241054  0.27725992  0.21377929    -0.52100
O93         O  0.65655076  0.31844339  0.16361584    -0.75300
O94         O  0.63295201  0.31932558  0.26867571    -0.82100
O95         O  0.68192310  0.17992780  0.15816619    -0.83800
O96         O  0.67800754  0.35145770  0.30840547    -0.79500
O97         O  0.63460465  0.21462985  0.19410323    -0.91100
O98         O  0.72014530  0.33444211  0.13955047    -0.77100
O99         O  0.71913000  0.32622712  0.23076769    -0.86500
O100        O  0.72112826  0.26090907  0.17495041    -0.86200
O101        O  0.69122774  0.26572777  0.28613431    -0.73000
O102        O  0.69348832  0.20767877  0.23410759    -0.85100
Zr103      Zr  0.82359295  0.23770220  0.26483509     2.26400
Zr104      Zr  0.74342629  0.31681875  0.29548778     2.06300
Zr105      Zr  0.74809646  0.19471514  0.18900530     2.10000
Zr106      Zr  0.77224599  0.31155595  0.18490057     1.78800
O107        O  0.73698893  0.12161973  0.19508973    -0.93900
O108        O  0.77407554  0.38566884  0.18818860    -0.41700
O109        O  0.80014262  0.24560678  0.19948288    -0.78400
O110        O  0.79752919  0.30505390  0.24920182    -0.97100
O111        O  0.76922141  0.25001036  0.30980388    -0.90400
O112        O  0.77316645  0.18589726  0.25343676    -0.93200
C113        C  0.68037244  0.33393706  0.13764430     1.00600
C114        C  0.64483833  0.18613219  0.17046920     1.13500
C115        C  0.64124891  0.34338833  0.29691543     1.04300
O116        O  0.75522061  0.38980530  0.29046962    -0.95400
O117        O  0.80800030  0.33218728  0.32846203    -0.91100
O118        O  0.85776324  0.29390761  0.29902439    -0.84200
C119        C  0.84599093  0.32363092  0.32067796     1.10900
O120        O  0.64842609  0.17188306  0.30328896    -0.97300
Zr121      Zr  0.71859802  0.19894826  0.29797843     1.88900
O122        O  0.83465501  0.19113151  0.31991339    -0.74000
O123        O  0.73196848  0.31618007  0.36481105    -0.53200
O124        O  0.68914209  0.21420843  0.36080122    -0.97900
O125        O  0.71723749  0.12464074  0.29476331    -0.55100
O126        O  0.77040252  0.17605629  0.34290219    -0.74500
C127        C  0.81009217  0.17526092  0.34514517     0.97800
O128        O  0.89926000  0.23916322  0.26892694    -0.63300
O129        O  0.76174872  0.19333031  0.12006512    -0.58100
O130        O  0.85867178  0.19806478  0.21445074    -0.94800
O131        O  0.81512054  0.16441640  0.17439253    -0.93200
O132        O  0.80178158  0.29092151  0.12337262    -0.93600
O133        O  0.84142993  0.33795036  0.17154141    -0.92400
C134        C  0.85143257  0.17401739  0.18608475     1.16700
H135        H  0.71062297  0.26049013  0.14907337     0.32600
H136        H  0.81842017  0.32595921  0.25083390     0.43500
H137        H  0.78531270  0.15922532  0.25683862     0.37000
H138        H  0.66920443  0.26893616  0.30474384     0.33500
H139        H  0.77785797  0.39475767  0.16125792     0.25300
H140        H  0.73567559  0.34484400  0.37284094     0.31200
H141        H  0.70808900  0.23477541  0.37169358     0.37100
H142        H  0.77759546  0.28471504  0.10699690     0.31600
H143        H  0.75483665  0.16521500  0.11217691     0.30500
H144        H  0.73208592  0.11210881  0.16854261     0.32100
H145        H  0.74648022  0.11546738  0.29634068     0.31100
H146        H  0.86046925  0.31782733  0.18334368     0.35100
H147        H  0.90832602  0.21036760  0.27044438     0.27800
H148        H  0.58493188  0.30638382  0.21097544     0.32100
H149        H  0.64896605  0.15274691  0.32530472     0.34900
H150        H  0.73986808  0.21038966  0.10826697     0.27500
H151        H  0.90928194  0.24902994  0.24361540     0.40400
H152        H  0.77694937  0.39251540  0.27041664     0.30500
H153        H  0.74533529  0.39396620  0.19481635     0.38100
H154        H  0.70879432  0.11838843  0.26814152     0.29900
H155        H  0.70194850  0.31088389  0.36845528     0.30000
H156        H  0.58088399  0.26897663  0.23904285     0.30300
C157        C  0.84896077  0.66946441  0.60969795     0.79500
N158        N  0.82572708  0.67202109  0.57754437    -0.78800
C159        C  0.83767895  0.65328076  0.54504226     0.81900
N160        N  0.87376643  0.63274612  0.54400519    -0.78800
C161        C  0.89774728  0.62954378  0.57557586     0.82000
N162        N  0.88497070  0.64692425  0.60942509    -0.80500
C163        C  0.64698491  0.61335312  0.41488935     0.79500
N164        N  0.67935434  0.61792797  0.43928785    -0.78800
C165        C  0.71031717  0.64435210  0.43193971     0.81900
N166        N  0.70895383  0.66653291  0.39972810    -0.78800
C167        C  0.67731245  0.66313879  0.37467906     0.82000
N168        N  0.64572106  0.63599635  0.38171100    -0.80500
Zr169      Zr  0.99366566  0.42453059  0.47874765     2.17500
O170        O  0.00056849  0.35055479  0.47507614    -0.52100
O171        O  0.94737894  0.40300876  0.42641968    -0.75300
O172        O  0.95769625  0.39041674  0.53286133    -0.82100
O173        O  0.08117861  0.44607544  0.40569376    -0.83800
O174        O  0.92418360  0.43467792  0.57267350    -0.79500
O175        O  0.06026809  0.40070072  0.45112258    -0.91100
O176        O  0.91467399  0.46080173  0.40716276    -0.77100
O177        O  0.93748859  0.46943761  0.49399506    -0.86500
O178        O  0.99395082  0.47496306  0.42899800    -0.86200
O179        O  0.00836908  0.45333482  0.54106033    -0.73000
O180        O  0.05902191  0.45922689  0.48167992    -0.85100
Zr181      Zr  0.01762644  0.58394181  0.50921568     2.26400
Zr182      Zr  0.95277381  0.50027538  0.55502554     2.06300
Zr183      Zr  0.05853815  0.51028935  0.43256328     2.10000
Zr184      Zr  0.93758146  0.51886410  0.44416119     1.78800
O185        O  0.13413676  0.51179538  0.43024759    -0.93900
O186        O  0.86372712  0.51157086  0.45813412    -0.41700
O187        O  0.00213214  0.55535979  0.44704070    -0.78400
O188        O  0.95092600  0.54996125  0.50462660    -0.97100
O189        O  0.01845653  0.53393251  0.55875676    -0.90400
O190        O  0.07374236  0.53953752  0.49356419    -0.93200
C191        C  0.92281057  0.42269548  0.40403772     1.00600
C192        C  0.08419675  0.41189325  0.42311818     1.13500
C193        C  0.93420630  0.39868618  0.56208796     1.04300
O194        O  0.87906474  0.50140518  0.57105756    -0.95400
O195        O  0.92839058  0.56511289  0.58155902    -0.91100
O196        O  0.96160572  0.61453322  0.54731620    -0.84200
C197        C  0.93344178  0.60231026  0.57100343     1.10900
O198        O  0.09723297  0.42430852  0.57019793    -0.97300
Zr199      Zr  0.07350166  0.48854167  0.54245072     1.88900
O200        O  0.06920821  0.60018232  0.55929197    -0.74000
O201        O  0.97526418  0.49406661  0.62144030    -0.53200
O202        O  0.06819077  0.48913466  0.61229471    -0.97900
O203        O  0.14426794  0.47062987  0.52336313    -0.55100
O204        O  0.11420643  0.54728872  0.55848824    -0.74500
C205        C  0.10203248  0.58176015  0.57116391     0.97800
O206        O  0.01923566  0.65823477  0.50703253    -0.63300
O207        O  0.04886201  0.51411898  0.36326096    -0.58100
O208        O  0.04388257  0.61980380  0.45256180    -0.94800
O209        O  0.07778819  0.57787439  0.41098178    -0.93200
O210        O  0.94020370  0.54478784  0.37856316    -0.93600
O211        O  0.89751373  0.58115812  0.43530481    -0.92400
C212        C  0.06523957  0.61302954  0.42185291     1.16700
H213        H  0.99228628  0.46345682  0.40357334     0.32600
H214        H  0.92740400  0.56790647  0.50737441     0.43500
H215        H  0.09958953  0.55425918  0.49145920     0.37000
H216        H  0.01015342  0.43271173  0.56079649     0.33500
H217        H  0.85035530  0.50933505  0.43269360     0.25300
H218        H  0.95130918  0.50383613  0.63684129     0.31200
H219        H  0.09703940  0.48658444  0.62164455     0.37100
H220        H  0.93721745  0.52058865  0.36192112     0.31600
H221        H  0.03151291  0.53864622  0.35904958     0.30500
H222        H  0.14113121  0.51197458  0.40251923     0.32100
H223        H  0.15680581  0.49639451  0.51416976     0.31100
H224        H  0.91743387  0.60340638  0.44037658     0.35100
H225        H  0.99175115  0.66668421  0.49711380     0.27800
H226        H  0.97278923  0.33917727  0.48093373     0.32100
H227        H  0.12322655  0.43046160  0.58405628     0.34900
H228        H  0.07650198  0.52139138  0.35271734     0.27500
H229        H  0.01940392  0.66729477  0.53413429     0.40400
H230        H  0.86509272  0.49200764  0.54744330     0.30500
H231        H  0.86070296  0.48414575  0.46966823     0.38100
H232        H  0.14116481  0.45406519  0.49983941     0.29900
H233        H  0.97644501  0.46441083  0.62652530     0.30000
H234        H  0.01803100  0.34281183  0.49721327     0.30300
C235        C  0.39426287  0.84445119  0.16726133     0.79500
N236        N  0.42850071  0.82035696  0.16783249    -0.78800
C237        C  0.46238035  0.82962416  0.14661028     0.81900
N238        N  0.46201597  0.86358696  0.12491472    -0.78800
C239        C  0.42868668  0.88861958  0.12431371     0.82000
N240        N  0.39363082  0.87849532  0.14448114    -0.80500
C241        C  0.60193244  0.64485217  0.07905267     0.79500
N242        N  0.63802009  0.64353091  0.09999268    -0.78800
C243        C  0.64759661  0.67586567  0.12330603     0.81900
N244        N  0.61991281  0.70661851  0.12773571    -0.78800
C245        C  0.58370260  0.70701527  0.10846170     0.82000
N246        N  0.57564543  0.67677698  0.08351217    -0.80500
C247        C  0.15419814  0.10851530  0.32173637     0.79500
N248        N  0.12916152  0.10752749  0.35380278    -0.78800
C249        C  0.10207512  0.07579519  0.35857850     0.81900
N250        N  0.10000986  0.04659944  0.33155302    -0.78800
C251        C  0.12470283  0.04738872  0.30027474     0.82000
N252        N  0.15202447  0.07806731  0.29570599    -0.80500
C253        C  0.08166230  0.90231123  0.13063254     0.79500
N254        N  0.08074528  0.92684247  0.16154309    -0.78800
C255        C  0.10158817  0.91770333  0.19358475     0.81900
N256        N  0.12342129  0.88278865  0.19537428    -0.78800
C257        C  0.12441600  0.85666925  0.16535382     0.82000
N258        N  0.10458011  0.86685932  0.13172056    -0.80500
Zr259      Zr  0.33109701  0.76544450  0.26623916     2.17500
O260        O  0.40616046  0.75487581  0.26417694    -0.52100
O261        O  0.35006629  0.81334216  0.31681815    -0.75300
O262        O  0.36563547  0.80677724  0.21753443    -0.82100
O263        O  0.31493574  0.67106817  0.33092192    -0.83800
O264        O  0.32145116  0.83547284  0.17447566    -0.79500
O265        O  0.36383817  0.70798166  0.29868884    -0.91100
O266        O  0.29023577  0.84724519  0.32991562    -0.77100
O267        O  0.28334350  0.81888487  0.25252543    -0.86500
O268        O  0.28001069  0.76132601  0.31584593    -0.86200
O269        O  0.30383886  0.75146410  0.20328047    -0.73000
O270        O  0.29949495  0.69960424  0.26102466    -0.85100
Zr271      Zr  0.17068550  0.73762678  0.23256823     2.26400
Zr272      Zr  0.25467679  0.80514956  0.19025373     2.06300
Zr273      Zr  0.24709732  0.69630474  0.30973731     2.10000
Zr274      Zr  0.23198430  0.81399896  0.30144825     1.78800
O275        O  0.24486059  0.62223574  0.31326843    -0.93900
O276        O  0.22064316  0.88629852  0.28945745    -0.41700
O277        O  0.19851165  0.74973673  0.29549045    -0.78400
O278        O  0.20239237  0.80374447  0.23972990    -0.97100
O279        O  0.22313647  0.73951015  0.18419316    -0.90400
O280        O  0.21769340  0.68331468  0.24783437    -0.93200
C281        C  0.32874225  0.83997124  0.33525360     1.00600
C282        C  0.35262353  0.67835352  0.32055468     1.13500
C283        C  0.35778113  0.82920599  0.18816341     1.04300
O284        O  0.24844910  0.87890430  0.18511494    -0.95400
O285        O  0.18946092  0.82479254  0.15953872    -0.91100
O286        O  0.13931223  0.79422989  0.19569318    -0.84200
C287        C  0.15167590  0.82106780  0.17099074     1.10900
O288        O  0.33716984  0.66215251  0.17500629    -0.97300
Zr289      Zr  0.27049169  0.68620477  0.19968795     1.88900
O290        O  0.15728062  0.69112794  0.17917925    -0.74000
O291        O  0.26439432  0.79073664  0.12213989    -0.53200
O292        O  0.27597906  0.69240133  0.13016251    -0.97900
O293        O  0.29017409  0.61687263  0.21712735    -0.55100
O294        O  0.21062876  0.64662457  0.18112623    -0.74500
C295        C  0.17690370  0.65987793  0.16654312     0.97800
O296        O  0.09518991  0.73239453  0.23366676    -0.63300
O297        O  0.24326498  0.70478651  0.37924719    -0.58100
O298        O  0.13430205  0.70923219  0.28838790    -0.94800
O299        O  0.17749346  0.67651251  0.32996969    -0.93200
O300        O  0.21682585  0.79916647  0.36870864    -0.93600
O301        O  0.16801696  0.84337316  0.32622651    -0.92400
C302        C  0.14138945  0.68819031  0.31895076     1.16700
H303        H  0.29223100  0.76404939  0.34094728     0.32600
H304        H  0.18361901  0.82655439  0.23757570     0.43500
H305        H  0.20341907  0.65749661  0.24889825     0.37000
H306        H  0.32578236  0.75157970  0.18425164     0.33500
H307        H  0.22933493  0.90013302  0.31332572     0.25300
H308        H  0.26667339  0.81784214  0.10979633     0.31200
H309        H  0.28087104  0.66432291  0.12084531     0.37100
H310        H  0.24405644  0.79882388  0.38174512     0.31600
H311        H  0.23944639  0.67685257  0.38942561     0.30500
H312        H  0.25079736  0.61567301  0.34046111     0.32100
H313        H  0.28428781  0.60033612  0.19405678     0.31100
H314        H  0.14717423  0.82201700  0.32126114     0.35100
H315        H  0.08517831  0.75905607  0.24327496     0.27800
H316        H  0.41867923  0.78202911  0.26823567     0.32100
H317        H  0.35767363  0.67125559  0.19423139     0.34900
H318        H  0.27168053  0.71234027  0.38718943     0.27500
H319        H  0.08678963  0.73178303  0.20636885     0.40400
H320        H  0.22328964  0.88593318  0.20021537     0.30500
H321        H  0.24220120  0.89380313  0.27035045     0.38100
H322        H  0.26892355  0.60827133  0.23611205     0.29900
H323        H  0.29264077  0.77894181  0.12006403     0.30000
H324        H  0.41299004  0.74771519  0.23724823     0.30300
Zr325      Zr  0.22917065  0.33635751  0.24337573     2.17500
O326        O  0.21946500  0.40934508  0.25209810    -0.52100
O327        O  0.17063339  0.35558875  0.20167018    -0.75300
O328        O  0.28539233  0.37233851  0.20700068    -0.82100
O329        O  0.15843893  0.30850963  0.32739099    -0.83800
O330        O  0.32268166  0.32964707  0.16837024    -0.79500
O331        O  0.20669676  0.35525868  0.31016855    -0.91100
O332        O  0.18201587  0.30780711  0.15764985    -0.77100
O333        O  0.23753620  0.29355975  0.18832287    -0.86500
O334        O  0.17495564  0.28601934  0.24657011    -0.86200
O335        O  0.29764961  0.30613419  0.24728791    -0.73000
O336        O  0.23962551  0.29720588  0.30076756    -0.85100
Zr337      Zr  0.26564561  0.17415718  0.25187122     2.26400
Zr338      Zr  0.30463242  0.26282800  0.19198542     2.06300
Zr339      Zr  0.18722426  0.24600203  0.30294764     2.10000
Zr340      Zr  0.18412591  0.24370394  0.19204152     1.78800
O341        O  0.19344400  0.24577463  0.37265580    -0.93900
O342        O  0.17152318  0.23100393  0.12399303    -0.41700
O343        O  0.19642568  0.20308060  0.24817448    -0.78400
O344        O  0.25064663  0.21314043  0.19437270    -0.97100
O345        O  0.31798932  0.22532782  0.24964869    -0.90400
O346        O  0.25448180  0.21559678  0.30734022    -0.93200
C347        C  0.16194014  0.33874668  0.16954312     1.00600
C348        C  0.17827483  0.34143055  0.33332602     1.13500
C349        C  0.31394703  0.36502966  0.18136821     1.04300
O350        O  0.30293873  0.26638913  0.12218791    -0.95400
O351        O  0.32611986  0.20086803  0.15986111    -0.91100
O352        O  0.29431783  0.14760705  0.19008316    -0.84200
C353        C  0.31479445  0.16351469  0.16163738     1.10900
O354        O  0.33402441  0.33136950  0.32800900    -0.97300
Zr355      Zr  0.30640122  0.26707343  0.30477784     1.88900
O356        O  0.32799335  0.15828477  0.29117337    -0.74000
O357        O  0.37989702  0.26594886  0.19756892    -0.53200
O358        O  0.38136724  0.26788890  0.29524718    -0.97900
O359        O  0.29538070  0.27974402  0.37315521    -0.55100
O360        O  0.32767638  0.20643452  0.33719440    -0.74500
C361        C  0.34256434  0.17439138  0.32199210     0.97800
O362        O  0.27277070  0.10033876  0.24746685    -0.63300
O363        O  0.11229738  0.23627326  0.29928939    -0.58100
O364        O  0.20915317  0.13810995  0.28617263    -0.94800
O365        O  0.16966813  0.17857312  0.32495913    -0.93200
O366        O  0.11012488  0.24218522  0.20734456    -0.93600
O367        O  0.16790602  0.17685144  0.16598394    -0.92400
C368        C  0.17996267  0.14388108  0.31128172     1.16700
H369        H  0.14793105  0.29875743  0.24765371     0.32600
H370        H  0.24890518  0.19778252  0.17095697     0.43500
H371        H  0.25506700  0.19941117  0.33053639     0.37000
H372        H  0.31962541  0.32604079  0.24790831     0.33500
H373        H  0.15411375  0.25376571  0.11460289     0.25300
H374        H  0.38862253  0.23762642  0.20317828     0.31200
H375        H  0.38631473  0.28979134  0.27618541     0.37100
H376        H  0.10011403  0.27052263  0.20470037     0.31600
H377        H  0.10309490  0.23329828  0.32633310     0.30500
H378        H  0.16451633  0.24725460  0.38235888     0.32100
H379        H  0.28377641  0.25407946  0.38358344     0.31100
H380        H  0.17945294  0.15713887  0.18468001     0.35100
H381        H  0.27140945  0.09010155  0.27422184     0.27800
H382        H  0.22822279  0.42221100  0.22762475     0.32100
H383        H  0.31081491  0.35096845  0.32515414     0.34900
H384        H  0.10084566  0.26290794  0.29113798     0.27500
H385        H  0.24690815  0.09069563  0.23533514     0.40400
H386        H  0.27315622  0.26388541  0.11572504     0.30500
H387        H  0.19879865  0.23514627  0.11130880     0.38100
H388        H  0.27189495  0.29923250  0.37440262     0.29900
H389        H  0.38988534  0.27104995  0.17104357     0.30000
H390        H  0.24087650  0.41723926  0.27090621     0.30300
C391        C  0.63872787  0.84101506  0.63173778     0.79500
N392        N  0.63061237  0.87869181  0.61703799    -0.78800
C393        C  0.59212734  0.88694583  0.60291314     0.81900
N394        N  0.56242162  0.85759840  0.60361865    -0.78800
C395        C  0.56975895  0.82032470  0.61903831     0.82000
N396        N  0.60827217  0.81241984  0.63283977    -0.80500
C397        C  0.42038768  0.62520717  0.60968780     0.79500
N398        N  0.45039985  0.65423789  0.60954194    -0.78800
C399        C  0.44497208  0.69051493  0.62730347     0.81900
N400        N  0.40792541  0.69805859  0.64472052    -0.78800
C401        C  0.37701492  0.66984932  0.64506015     0.82000
N402        N  0.38309286  0.63303433  0.62736617    -0.80500
Zr403      Zr  0.52177340  0.01230275  0.57003316     2.17500
O404        O  0.52253972  0.00928502  0.64006385    -0.52100
O405        O  0.57686881  0.05951366  0.59112048    -0.75300
O406        O  0.55753822  0.95035593  0.59426341    -0.82100
O407        O  0.41848216  0.07963255  0.56560924    -0.83800
O408        O  0.59666754  0.92342482  0.54588090    -0.79500
O409        O  0.46049106  0.04112535  0.60363325    -0.91100
O410        O  0.59872161  0.09125068  0.53687265    -0.77100
O411        O  0.57494814  0.01174099  0.52202265    -0.86500
O412        O  0.50968798  0.07070685  0.53021432    -0.86200
O413        O  0.51202593  0.94928897  0.53469890    -0.73000
O414        O  0.45370122  0.00514290  0.54238563    -0.85100
Zr415      Zr  0.48878196  0.99868081  0.41887098     2.26400
Zr416      Zr  0.56675001  0.94940276  0.48711956     2.06300
Zr417      Zr  0.44248277  0.06257791  0.50131718     2.10000
Zr418      Zr  0.56204448  0.06906109  0.48174430     1.78800
O419        O  0.36727868  0.05500967  0.50456378    -0.93900
O420        O  0.63570427  0.06475998  0.46554677    -0.41700
O421        O  0.49576892  0.06146548  0.45327211    -0.78400
O422        O  0.55677674  0.00749267  0.44599734    -0.97100
O423        O  0.49972334  0.94139388  0.45948429    -0.90400
O424        O  0.43325353  0.00123163  0.46503557    -0.93200
C425        C  0.60088904  0.08414531  0.57280916     1.00600
C426        C  0.42875139  0.06472589  0.59824951     1.13500
C427        C  0.58340903  0.92388667  0.58058228     1.04300
O428        O  0.64193828  0.95503723  0.48126300    -0.95400
O429        O  0.58929084  0.92678750  0.42352245    -0.91100
O430        O  0.54306451  0.96033606  0.38589687    -0.84200
C431        C  0.57521196  0.93755410  0.39065722     1.10900
O432        O  0.43127434  0.91684387  0.56943829    -0.97300
Zr433      Zr  0.44521087  0.94433801  0.50570760     1.88900
O434        O  0.43742283  0.94945546  0.39838352    -0.74000
O435        O  0.55977374  0.87566714  0.48352124    -0.53200
O436        O  0.42269472  0.87407084  0.51364785    -0.97900
O437        O  0.37140953  0.96150218  0.50631051    -0.55100
O438        O  0.45080160  0.90642341  0.44602871    -0.74500
C439        C  0.43081074  0.91589730  0.41580349     0.97800
O440        O  0.49126367  0.01387382  0.35042186    -0.63300
O441        O  0.43945708  0.13669265  0.50406552    -0.58100
O442        O  0.45306062  0.05769326  0.39202820    -0.94800
O443        O  0.42072691  0.09186093  0.44070626    -0.93200
O444        O  0.54680264  0.14171908  0.48364598    -0.93600
O445        O  0.58154520  0.10233565  0.42172141    -0.92400
C446        C  0.43033355  0.08670532  0.40523995     1.16700
H447        H  0.51097217  0.09548101  0.54505673     0.32600
H448        H  0.57820683  0.00895980  0.42653777     0.43500
H449        H  0.40673715  0.00077375  0.45224609     0.37000
H450        H  0.51267491  0.92472510  0.54987698     0.33500
H451        H  0.64664672  0.09253491  0.46984911     0.25300
H452        H  0.58728815  0.86480258  0.49095446     0.31200
H453        H  0.44753744  0.85739173  0.50759438     0.37100
H454        H  0.57307552  0.15459043  0.49181479     0.31600
H455        H  0.41016530  0.14299504  0.51058604     0.30500
H456        H  0.35766990  0.05711793  0.47768015     0.32100
H457        H  0.35865275  0.94139883  0.52398387     0.31100
H458        H  0.55531009  0.10461163  0.40717560     0.35100
H459        H  0.51999069  0.02331792  0.34549334     0.27800
H460        H  0.55196939  0.01261837  0.64746356     0.32100
H461        H  0.41582095  0.93870548  0.58292485     0.34900
H462        H  0.45521331  0.14425886  0.52728564     0.27500
H463        H  0.48920415  0.98725375  0.33728052     0.40400
H464        H  0.65024970  0.97317327  0.50253172     0.30500
H465        H  0.64810153  0.04820302  0.48634551     0.38100
H466        H  0.36059057  0.95432203  0.48072599     0.29900
H467        H  0.54114749  0.86836987  0.50518811     0.30000
H468        H  0.51596610  0.98075089  0.64688111     0.30300
C469        C  0.32382770  0.36924939  0.62712570     0.79500
N470        N  0.35728129  0.39329575  0.61757625    -0.78800
C471        C  0.36040100  0.40859940  0.58101638     0.81900
N472        N  0.33130448  0.39851220  0.55485250    -0.78800
C473        C  0.29956925  0.37337238  0.56307805     0.82000
N474        N  0.29564150  0.35906714  0.59955524    -0.80500
C475        C  0.17018610  0.36038235  0.37103089     0.79500
N476        N  0.13296616  0.37883315  0.37794998    -0.78800
C477        C  0.12107181  0.38734910  0.41464738     0.81900
N478        N  0.14643104  0.37770509  0.44418132    -0.78800
C479        C  0.18339534  0.35911883  0.43814717     0.82000
N480        N  0.19513895  0.35045459  0.40126623    -0.80500
C481        C  0.57595508  0.38969139  0.37486362     0.79500
N482        N  0.54932129  0.35818069  0.38012452    -0.78800
C483        C  0.55037249  0.32548443  0.35672719     0.81900
N484        N  0.57783194  0.32457744  0.32744412    -0.78800
C485        C  0.60598671  0.35455839  0.32215671     0.82000
N486        N  0.60573732  0.38748396  0.34648732    -0.80500
C487        C  0.42281233  0.12148576  0.38029164     0.79500
N488        N  0.44965885  0.15278083  0.38443866    -0.78800
C489        C  0.44302108  0.18845250  0.36644103     0.81900
N490        N  0.40978397  0.19263073  0.34347798    -0.78800
C491        C  0.38224970  0.16187597  0.33884425     0.82000
N492        N  0.38797617  0.12604341  0.35826350    -0.80500
C493        C  0.61012671  0.58952343  0.87543205     0.79500
N494        N  0.62554324  0.62722387  0.86720187    -0.78800
C495        C  0.64047003  0.63445544  0.83111032     0.81900
N496        N  0.63954389  0.60490809  0.80429513    -0.78800
C497        C  0.62499930  0.56756584  0.81270908     0.82000
N498        N  0.61035543  0.56001910  0.84828872    -0.80500
C499        C  0.59502964  0.42603406  0.63169414     0.79500
N500        N  0.59486361  0.45448090  0.65974543    -0.78800
C501        C  0.62206721  0.45270378  0.68891180     0.81900
N502        N  0.64909494  0.42140909  0.69076630    -0.78800
C503        C  0.64945760  0.39159195  0.66416053     0.82000
N504        N  0.62235780  0.39375689  0.63382503    -0.80500
Zr505      Zr  0.48054258  0.49582510  0.57042866     2.17500
O506        O  0.47839170  0.49446940  0.64046902    -0.52100
O507        O  0.42218727  0.45046803  0.58696218    -0.75300
O508        O  0.44702773  0.55818901  0.59753883    -0.82100
O509        O  0.57971442  0.42196024  0.56505353    -0.83800
O510        O  0.42177295  0.59694117  0.54848793    -0.79500
O511        O  0.53713111  0.45919247  0.60398887    -0.91100
O512        O  0.39879841  0.43121840  0.52872301    -0.77100
O513        O  0.43247127  0.50895378  0.51973042    -0.86500
O514        O  0.48749433  0.44034453  0.52618042    -0.86200
O515        O  0.50164482  0.55957320  0.54123490    -0.73000
O516        O  0.55071952  0.49553514  0.54641407    -0.85100
Zr517      Zr  0.53099853  0.51984346  0.42219218     2.26400
Zr518      Zr  0.45352710  0.57165403  0.48975454     2.06300
Zr519      Zr  0.55726395  0.44127738  0.50094642     2.10000
Zr520      Zr  0.44057772  0.45449656  0.47549206     1.78800
O521        O  0.63218042  0.43111532  0.50108185    -0.93900
O522        O  0.37035971  0.47502378  0.45758981    -0.41700
O523        O  0.50978930  0.45609534  0.45044187    -0.78400
O524        O  0.45988088  0.51674904  0.44468633    -0.97100
O525        O  0.52410618  0.57376737  0.46731645    -0.90400
O526        O  0.57902810  0.50445591  0.47234919    -0.93200
C527        C  0.39643402  0.43157159  0.56542679     1.00600
C528        C  0.56823861  0.43477311  0.59821759     1.13500
C529        C  0.42777249  0.58986813  0.58426447     1.04300
O530        O  0.37961820  0.57741850  0.47630532    -0.95400
O531        O  0.43928260  0.59990872  0.42633039    -0.91100
O532        O  0.48215503  0.56357373  0.38710733    -0.84200
C533        C  0.45264022  0.58948608  0.39297369     1.10900
O534        O  0.59051117  0.57986531  0.58211158    -0.97300
Zr535      Zr  0.57130160  0.55813069  0.51766889     1.88900
O536        O  0.58728931  0.56884155  0.40791508    -0.74000
O537        O  0.46830797  0.64431197  0.49159581    -0.53200
O538        O  0.57087023  0.63187295  0.52517045    -0.97900
O539        O  0.64156002  0.53590652  0.53343427    -0.55100
O540        O  0.61169570  0.58620167  0.46641965    -0.74500
C541        C  0.61259617  0.58800528  0.42980760     0.97800
O542        O  0.53893491  0.51103762  0.35308960    -0.63300
O543        O  0.54242183  0.36856259  0.50521305    -0.58100
O544        O  0.56009924  0.45852824  0.39119575    -0.94800
O545        O  0.57459042  0.41254692  0.43837842    -0.93200
O546        O  0.44789835  0.38107931  0.46759674    -0.93600
O547        O  0.41602287  0.42592155  0.41527656    -0.92400
C548        C  0.57227762  0.42322853  0.40289155     1.16700
H549        H  0.48147777  0.41466249  0.53857237     0.32600
H550        H  0.44029664  0.51937296  0.42400817     0.43500
H551        H  0.60707517  0.50250714  0.46250504     0.37000
H552        H  0.50193995  0.58204694  0.55897444     0.33500
H553        H  0.35815960  0.48680320  0.48125696     0.25300
H554        H  0.44136346  0.65736645  0.49784495     0.31200
H555        H  0.60017256  0.64036747  0.52195693     0.37100
H556        H  0.43991051  0.36921934  0.49273535     0.31600
H557        H  0.56889115  0.35500444  0.49821835     0.30500
H558        H  0.63596384  0.40140150  0.49772597     0.32100
H559        H  0.65741257  0.53706600  0.50900729     0.31100
H560        H  0.43340494  0.43910222  0.39527421     0.35100
H561        H  0.51064456  0.50526586  0.34355733     0.27800
H562        H  0.44858540  0.49600270  0.64748171     0.32100
H563        H  0.61776533  0.59351951  0.57943504     0.34900
H564        H  0.53878817  0.36267695  0.53292668     0.27500
H565        H  0.54579005  0.53843345  0.34298627     0.40400
H566        H  0.36562107  0.56374985  0.49817911     0.30500
H567        H  0.37354849  0.49851363  0.43997559     0.38100
H568        H  0.63891233  0.50647495  0.53913044     0.29900
H569        H  0.48527679  0.64803981  0.51493044     0.30000
H570        H  0.49003767  0.52086375  0.64875234     0.30300
C571        C  0.31777784  0.14177767  0.12477644     0.79500
N572        N  0.29323473  0.15593336  0.09555367    -0.78800
C573        C  0.29845141  0.14193993  0.05917845     0.81900
N574        N  0.32757542  0.11345198  0.05275307    -0.78800
C575        C  0.35343502  0.10003085  0.08053306     0.82000
N576        N  0.34907374  0.11457225  0.11706072    -0.80500
C577        C  0.17689117  0.13886240  0.86278845     0.79500
N578        N  0.14333451  0.11492995  0.87241247    -0.78800
C579        C  0.13785271  0.10367905  0.91003382     0.81900
N580        N  0.16454508  0.11762633  0.93685683    -0.78800
C581        C  0.19600935  0.14279836  0.92830929     0.82000
N582        N  0.20258668  0.15292695  0.89098506    -0.80500
C583        C  0.09681825  0.42866949  0.84793922     0.79500
N584        N  0.09660391  0.45593905  0.81844947    -0.78800
C585        C  0.12413728  0.45249222  0.78907817     0.81900
N586        N  0.15223783  0.42216725  0.78937359    -0.78800
C587        C  0.15339197  0.39440767  0.81779932     0.82000
N588        N  0.12538214  0.39731125  0.84762024    -0.80500
C589        C  0.12213819  0.59340386  0.60715152     0.79500
N590        N  0.12371471  0.56283881  0.63319711    -0.78800
C591        C  0.14199190  0.56782776  0.66725553     0.81900
N592        N  0.15834611  0.60396875  0.67598330    -0.78800
C593        C  0.15758337  0.63533355  0.65086247     0.82000
N594        N  0.13885968  0.63079143  0.61572267    -0.80500
Zr595      Zr  0.27309879  0.33427305  0.75527205     2.17500
O596        O  0.27767372  0.40817133  0.74890757    -0.52100
O597        O  0.32947865  0.35214983  0.80059764    -0.75300
O598        O  0.21440949  0.36763049  0.78956145    -0.82100
O599        O  0.33825077  0.31081824  0.66320471    -0.83800
O600        O  0.17167754  0.32444361  0.82230811    -0.79500
O601        O  0.29720938  0.35923846  0.69106977    -0.91100
O602        O  0.31458662  0.30378457  0.84299146    -0.77100
O603        O  0.26071867  0.28977639  0.80861644    -0.86500
O604        O  0.32905520  0.28542136  0.75323564    -0.86200
O605        O  0.20558861  0.30312758  0.74555779    -0.73000
O606        O  0.26706116  0.29615816  0.69678536    -0.85100
Zr607      Zr  0.24151749  0.17186055  0.74084598     2.26400
Zr608      Zr  0.19447755  0.25833646  0.79931847     2.06300
Zr609      Zr  0.32142981  0.24684670  0.69524628     2.10000
Zr610      Zr  0.31601181  0.24145389  0.80640320     1.78800
O611        O  0.33094716  0.24063861  0.62602958    -0.93900
O612        O  0.32321833  0.22538660  0.87443526    -0.41700
O613        O  0.30953025  0.20205304  0.74872027    -0.78400
O614        O  0.25028215  0.20996943  0.79976820    -0.97100
O615        O  0.18738036  0.22152206  0.74048704    -0.90400
O616        O  0.25499819  0.21499702  0.68675699    -0.93200
C617        C  0.33618078  0.33433396  0.83287393     1.00600
C618        C  0.32141536  0.34630878  0.66375545     1.13500
C619        C  0.18247190  0.36009416  0.81128821     1.04300
O620        O  0.18975236  0.25663536  0.86910664    -0.95400
O621        O  0.16586697  0.19456818  0.82293509    -0.91100
O622        O  0.20764963  0.14411299  0.79998004    -0.84200
C623        C  0.18149082  0.15870613  0.82483819     1.10900
O624        O  0.17834821  0.32963660  0.66027372    -0.97300
Zr625      Zr  0.20166732  0.26490254  0.68705435     1.88900
O626        O  0.18439968  0.15122361  0.69785063    -0.74000
O627        O  0.12010047  0.26281357  0.78755000    -0.53200
O628        O  0.12627788  0.27178738  0.68803267    -0.97900
O629        O  0.22279674  0.27200576  0.61996140    -0.55100
O630        O  0.17408620  0.20472104  0.65759391    -0.74500
C631        C  0.16629334  0.16856541  0.66924102     0.97800
O632        O  0.24458751  0.09840088  0.75151434    -0.63300
O633        O  0.39528659  0.24559443  0.71008130    -0.58100
O634        O  0.29695278  0.13805842  0.70359500    -0.94800
O635        O  0.34203469  0.17999696  0.67232071    -0.93200
O636        O  0.39087752  0.24694263  0.79738935    -0.93600
O637        O  0.33599618  0.17504134  0.83148049    -0.92400
C638        C  0.32848882  0.14461483  0.68132902     1.16700
H639        H  0.35580812  0.29860354  0.75413688     0.32600
H640        H  0.24977080  0.19402695  0.82301638     0.43500
H641        H  0.25490189  0.19959533  0.66315671     0.37000
H642        H  0.18360825  0.32306552  0.74375875     0.33500
H643        H  0.34171697  0.24646691  0.88515519     0.25300
H644        H  0.10781379  0.27116201  0.81245958     0.31200
H645        H  0.11620420  0.24842460  0.70347991     0.37100
H646        H  0.40151953  0.21886674  0.80079463     0.31600
H647        H  0.40083678  0.21730676  0.71857664     0.30500
H648        H  0.36140170  0.24104456  0.62191523     0.32100
H649        H  0.22196763  0.24416921  0.60916308     0.31100
H650        H  0.33844892  0.15733186  0.80860750     0.35100
H651        H  0.24094098  0.08584092  0.72592950     0.27800
H652        H  0.27760795  0.41871345  0.77552664     0.32100
H653        H  0.16092174  0.32250126  0.63796973     0.34900
H654        H  0.40937705  0.24784528  0.68482172     0.27500
H655        H  0.27366923  0.09234450  0.75870364     0.40400
H656        H  0.21317840  0.23910063  0.87723503     0.30500
H657        H  0.29559964  0.23133894  0.88578414     0.38100
H658        H  0.25271421  0.27875810  0.62083857     0.29900
H659        H  0.11670747  0.28691355  0.77070720     0.30000
H660        H  0.25060848  0.41682861  0.73821543     0.30300
Zr661      Zr  0.52237786  0.98548625  0.92716237     2.17500
O662        O  0.52432276  0.98016273  0.85726786    -0.52100
O663        O  0.57852861  0.93756610  0.91152752    -0.75300
O664        O  0.55383877  0.04600869  0.89628556    -0.82100
O665        O  0.42957428  0.90766343  0.93748658    -0.83800
O666        O  0.58632768  0.08281787  0.94239714    -0.79500
O667        O  0.46394348  0.95029613  0.89674203    -0.91100
O668        O  0.60388833  0.92141766  0.97006232    -0.77100
O669        O  0.57178161  0.00114073  0.97593250    -0.86500
O670        O  0.51686587  0.93228238  0.97414022    -0.86200
O671        O  0.50225235  0.05113657  0.95297539    -0.73000
O672        O  0.45274896  0.98647205  0.95206144    -0.85100
Zr673      Zr  0.47598597  0.01571029  0.07389580     2.26400
Zr674      Zr  0.55171415  0.06566636  0.00252163     2.06300
Zr675      Zr  0.44754068  0.93441109  0.99987426     2.10000
Zr676      Zr  0.56516177  0.94894947  0.02290659     1.78800
O677        O  0.37245095  0.92729236  0.99505000    -0.93900
O678        O  0.63767459  0.96558963  0.03481064    -0.41700
O679        O  0.49642281  0.95031357  0.04900108    -0.78400
O680        O  0.54686334  0.01316430  0.05053331    -0.97100
O681        O  0.48168850  0.06814776  0.02666941    -0.90400
O682        O  0.42674980  0.99883056  0.02548096    -0.93200
C683        C  0.60459044  0.91944739  0.93339799     1.00600
C684        C  0.43636525  0.92284145  0.90416582     1.13500
C685        C  0.57566384  0.07657565  0.90751416     1.04300
O686        O  0.62589532  0.07404002  0.01288826    -0.95400
O687        O  0.56511065  0.09936763  0.06365414    -0.91100
O688        O  0.52152521  0.06572883  0.10426014    -0.84200
C689        C  0.55052444  0.09177796  0.09726930     1.10900
O690        O  0.41209388  0.06803360  0.91307539    -0.97300
Zr691      Zr  0.43339411  0.05056797  0.97807304     1.88900
O692        O  0.41424795  0.05719899  0.08887190    -0.74000
O693        O  0.53757888  0.13777078  0.99211136    -0.53200
O694        O  0.43554123  0.12421633  0.97007972    -0.97900
O695        O  0.36301072  0.03192236  0.95959562    -0.55100
O696        O  0.39217025  0.07602606  0.02989677    -0.74500
C697        C  0.38905649  0.07593897  0.06647304     0.97800
O698        O  0.47570646  0.00909368  0.14367571    -0.63300
O699        O  0.46147322  0.86152686  0.00313149    -0.58100
O700        O  0.45071148  0.95406360  0.10603619    -0.94800
O701        O  0.42101403  0.91246725  0.06189694    -0.93200
O702        O  0.55963079  0.87589687  0.03410308    -0.93600
O703        O  0.59392239  0.92993610  0.08496274    -0.92400
C704        C  0.43091552  0.92173093  0.09635514     1.16700
H705        H  0.52246098  0.90588299  0.96304664     0.32600
H706        H  0.56662254  0.01771205  0.07079338     0.43500
H707        H  0.39888209  0.99705413  0.03576605     0.37000
H708        H  0.50129038  0.07280500  0.93427913     0.33500
H709        H  0.65294329  0.93958991  0.03149142     0.25300
H710        H  0.56533760  0.15036214  0.98921971     0.31200
H711        H  0.44122579  0.13510467  0.99599937     0.37100
H712        H  0.58826227  0.86537765  0.03066835     0.31600
H713        H  0.47225757  0.85681314  0.02934298     0.30500
H714        H  0.36691724  0.89840185  0.00144353     0.32100
H715        H  0.36560913  0.00393787  0.94931127     0.31100
H716        H  0.58597227  0.95235144  0.10250568     0.35100
H717        H  0.50523334  0.00684503  0.15123138     0.27800
H718        H  0.55383697  0.98350485  0.84978044     0.32100
H719        H  0.42185728  0.04494038  0.89712492     0.34900
H720        H  0.43367397  0.84870286  0.00328352     0.27500
H721        H  0.46638132  0.03592378  0.15336964     0.40400
H722        H  0.63266632  0.05458728  0.03370430     0.30500
H723        H  0.64628830  0.98224769  0.01242070     0.38100
H724        H  0.34753107  0.02856327  0.98404134     0.29900
H725        H  0.52530760  0.13937995  0.96615545     0.30000
H726        H  0.51023700  0.00495263  0.84756701     0.30300
C727        C  0.87598944  0.35629564  0.32787187     0.79500
N728        N  0.88313299  0.38083862  0.29720157    -0.78800
C729        C  0.90297285  0.41664757  0.30113930     0.81900
N730        N  0.91520390  0.42837579  0.33623292    -0.78800
C731        C  0.90905143  0.40459621  0.36753604     0.82000
N732        N  0.88814768  0.36844157  0.36387047    -0.80500
C733        C  0.86870838  0.61005227  0.17280256     0.79500
N734        N  0.87086253  0.57875282  0.19822989    -0.78800
C735        C  0.89191274  0.54444259  0.18972804     0.81900
N736        N  0.91242763  0.54170564  0.15610532    -0.78800
C737        C  0.91093454  0.57231877  0.13001072     0.82000
N738        N  0.88843667  0.60687598  0.13791157    -0.80500
C739        C  0.61520454  0.15272001  0.16597894     0.79500
N740        N  0.61185878  0.12801174  0.19692341    -0.78800
C741        C  0.58807414  0.09448237  0.19586742     0.81900
N742        N  0.56762068  0.08525112  0.16356073    -0.78800
C743        C  0.57066834  0.10875991  0.13175530     0.82000
N744        N  0.59591047  0.14247314  0.13221058    -0.80500
C745        C  0.64093108  0.89350649  0.31101160     0.79500
N746        N  0.62245992  0.89620112  0.34672087    -0.78800
C747        C  0.59882818  0.93000541  0.35499857     0.81900
N748        N  0.59517976  0.95993963  0.32866279    -0.78800
C749        C  0.61383212  0.95782351  0.29426256     0.82000
N750        N  0.63612833  0.92439592  0.28532402    -0.80500
C751        C  0.10577701  0.68162483  0.34490822     0.79500
N752        N  0.07652149  0.71138286  0.34653729    -0.78800
C753        C  0.04595814  0.71045587  0.37333159     0.81900
N754        N  0.04392744  0.67864306  0.39790337    -0.78800
C755        C  0.07202802  0.64798491  0.39624292     0.82000
N756        N  0.10359866  0.64948749  0.36986120    -0.80500
C757        C  0.85392752  0.85617271  0.35621997     0.79500
N758        N  0.88266889  0.82664457  0.36170130    -0.78800
C759        C  0.91897550  0.83430241  0.37929888     0.81900
N760        N  0.92715881  0.87256751  0.39099385    -0.78800
C761        C  0.89929456  0.90306458  0.38607451     0.82000
N762        N  0.86207700  0.89516989  0.36837626    -0.80500
C763        C  0.87629924  0.89375575  0.07872175     0.79500
N764        N  0.87679344  0.86862202  0.11025486    -0.78800
C765        C  0.85291351  0.83396649  0.10990730     0.81900
N766        N  0.82886693  0.82590152  0.07915150    -0.78800
C767        C  0.82754650  0.85152428  0.04917347     0.82000
N768        N  0.85112125  0.88506929  0.04908604    -0.80500
C769        C  0.63963980  0.89535043  0.91834046     0.79500
N770        N  0.67169112  0.89126626  0.94306768    -0.78800
C771        C  0.70317463  0.86558455  0.93587168     0.81900
N772        N  0.70239388  0.84288759  0.90423528    -0.78800
C773        C  0.67171730  0.84657844  0.87830481     0.82000
N774        N  0.63952304  0.87332786  0.88479490    -0.80500
Zr775      Zr  0.73527452  0.77968680  0.31256172     2.17500
O776        O  0.72341797  0.79009058  0.38116006    -0.52100
O777        O  0.68204068  0.83293104  0.32085800    -0.75300
O778        O  0.79215047  0.81901025  0.34286343    -0.82100
O779        O  0.66919727  0.67551041  0.30789258    -0.83800
O780        O  0.82457092  0.85367588  0.29500732    -0.79500
O781        O  0.70373964  0.72098755  0.34491993    -0.91100
O782        O  0.66899904  0.85556914  0.26063225    -0.77100
O783        O  0.74754518  0.82540092  0.26055961    -0.86500
O784        O  0.68403771  0.76331161  0.26555346    -0.86200
O785        O  0.80528937  0.76433065  0.29106918    -0.73000
O786        O  0.74622975  0.70995764  0.29336174    -0.85100
Zr787      Zr  0.77772956  0.72683498  0.17086639     2.26400
Zr788      Zr  0.81668086  0.81043352  0.23875698     2.06300
Zr789      Zr  0.69593882  0.69412340  0.24514835     2.10000
Zr790      Zr  0.69697640  0.80870257  0.21375279     1.78800
O791        O  0.69939985  0.62053434  0.25348091    -0.93900
O792        O  0.70621117  0.87501842  0.18353345    -0.41700
O793        O  0.70845684  0.74029527  0.19356694    -0.78400
O794        O  0.76576177  0.79692447  0.19013511    -0.97100
O795        O  0.82853592  0.74140223  0.21851310    -0.90400
O796        O  0.76459124  0.68009507  0.22202124    -0.93200
C797        C  0.66517094  0.85796435  0.29723192     1.00600
C798        C  0.68153738  0.68869033  0.34037646     1.13500
C799        C  0.81945597  0.84479772  0.33053714     1.04300
O800        O  0.82937722  0.88209354  0.22524683    -0.95400
O801        O  0.84868729  0.82592199  0.17741024    -0.91100
O802        O  0.82081790  0.77790157  0.13840192    -0.84200
C803        C  0.84241770  0.81027926  0.14437516     1.10900
O804        O  0.83579637  0.68179932  0.33584953    -0.97300
Zr805      Zr  0.81451896  0.69546340  0.26992932     1.88900
O806        O  0.82617617  0.66935909  0.16249049    -0.74000
O807        O  0.88915615  0.79654772  0.25365526    -0.53200
O808        O  0.88868030  0.70608941  0.27917116    -0.97900
O809        O  0.79851479  0.62656280  0.29184578    -0.55100
O810        O  0.84616455  0.65156098  0.22260668    -0.74500
C811        C  0.84626990  0.64667788  0.18611037     0.97800
O812        O  0.78417910  0.71268244  0.10229004    -0.63300
O813        O  0.62064615  0.69743537  0.24036296    -0.58100
O814        O  0.71442393  0.70073550  0.13935818    -0.94800
O815        O  0.67757915  0.66433190  0.18336158    -0.93200
O816        O  0.62254647  0.79624652  0.20948713    -0.93600
O817        O  0.67422340  0.81604018  0.14760918    -0.92400
C818        C  0.68369830  0.67757361  0.14909374     1.16700
H819        H  0.65632843  0.76663908  0.27588546     0.32600
H820        H  0.76797543  0.81598407  0.16910923     0.43500
H821        H  0.76614107  0.65221012  0.21338262     0.37000
H822        H  0.82621717  0.76754715  0.31049618     0.33500
H823        H  0.67886133  0.88862125  0.18611663     0.25300
H824        H  0.90426579  0.82087996  0.24429257     0.31200
H825        H  0.90067169  0.70715561  0.25294227     0.37100
H826        H  0.60914780  0.81965269  0.22249495     0.31600
H827        H  0.61537851  0.71130979  0.21558223     0.30500
H828        H  0.67056130  0.61108580  0.24956917     0.32100
H829        H  0.78922991  0.61178559  0.26870595     0.31100
H830        H  0.67466694  0.78805298  0.13711403     0.35100
H831        H  0.77288400  0.73706140  0.08917709     0.27800
H832        H  0.69317576  0.78639920  0.38510980     0.32100
H833        H  0.85786480  0.66080874  0.33413523     0.34900
H834        H  0.61194553  0.66891655  0.23606118     0.27500
H835        H  0.81432413  0.71311044  0.09649220     0.40400
H836        H  0.80397899  0.89155928  0.21202193     0.30500
H837        H  0.72466306  0.88998427  0.20117274     0.38100
H838        H  0.77308087  0.62950950  0.30773539     0.29900
H839        H  0.89089607  0.79825364  0.28197724     0.30000
H840        H  0.72787678  0.81949501  0.38574233     0.30300
C841        C  0.43044428  0.60359528  0.35838247     0.79500
N842        N  0.40425757  0.63667818  0.35788985    -0.78800
C843        C  0.38282380  0.64528194  0.32494210     0.81900
N844        N  0.38601604  0.62018891  0.29443689    -0.78800
C845        C  0.41066710  0.58706271  0.29531414     0.82000
N846        N  0.43268484  0.57889109  0.32724144    -0.80500
C847        C  0.34171421  0.39884060  0.16973131     0.79500
N848        N  0.34968641  0.42751126  0.19662404    -0.78800
C849        C  0.37718899  0.45763703  0.18964992     0.81900
N850        N  0.39693331  0.45903594  0.15547764    -0.78800
C851        C  0.38993476  0.43112263  0.12780704     0.82000
N852        N  0.36195178  0.40043474  0.13471804    -0.80500
Zr853      Zr  0.48047712  0.43191782  0.01499702     2.17500
O854        O  0.46905964  0.35855566  0.01808260    -0.52100
O855        O  0.43606394  0.42119767  0.07319811    -0.75300
O856        O  0.54237012  0.39664958  0.04069457    -0.82100
O857        O  0.41174311  0.44497517  0.92032326    -0.83800
O858        O  0.57794976  0.44289346  0.07616979    -0.79500
O859        O  0.44507995  0.40036097  0.95980016    -0.91100
O860        O  0.39673204  0.47802230  0.07891240    -0.77100
O861        O  0.49149745  0.48224163  0.06308748    -0.86500
O862        O  0.42692612  0.48155270  0.00580410    -0.86200
O863        O  0.54864833  0.46037412  0.00073904    -0.73000
O864        O  0.48796070  0.46016550  0.95131708    -0.85100
Zr865      Zr  0.51559505  0.58842657  0.98039649     2.26400
Zr866      Zr  0.55932398  0.50962365  0.05056847     2.06300
Zr867      Zr  0.43546895  0.51087540  0.94311286     2.10000
Zr868      Zr  0.43866844  0.53226228  0.05329777     1.78800
O869        O  0.42740950  0.50528520  0.87379026    -0.93900
O870        O  0.44850681  0.53900170  0.12230927    -0.41700
O871        O  0.44698301  0.56159637  0.99115403    -0.78400
O872        O  0.50640062  0.56066583  0.04401715    -0.97100
O873        O  0.56781833  0.53758648  0.98745282    -0.90400
O874        O  0.50244414  0.53994392  0.93078628    -0.93200
C875        C  0.40716670  0.44229716  0.08969360     1.00600
C876        C  0.42242303  0.40881125  0.93022877     1.13500
C877        C  0.57285950  0.40702001  0.06248246     1.04300
O878        O  0.55434176  0.51738349  0.11999610    -0.95400
O879        O  0.59353017  0.57389466  0.06628187    -0.91100
O880        O  0.56051663  0.62039047  0.02860912    -0.84200
C881        C  0.58590810  0.61064619  0.05573190     1.10900
O882        O  0.56313428  0.42026530  0.91378912    -0.97300
Zr883      Zr  0.55428768  0.48923427  0.93823129     1.88900
O884        O  0.56032932  0.60046313  0.92469106    -0.74000
O885        O  0.63447284  0.50042298  0.04813118    -0.53200
O886        O  0.62585177  0.46565249  0.93264918    -0.97900
O887        O  0.53758873  0.49174754  0.86986634    -0.55100
O888        O  0.60094918  0.54481952  0.92610970    -0.74500
C889        C  0.59067112  0.57910207  0.91189999     0.97800
O890        O  0.52149636  0.66248442  0.97963737    -0.63300
O891        O  0.36164210  0.51736698  0.95729847    -0.58100
O892        O  0.45213493  0.62067906  0.95607973    -0.94800
O893        O  0.41998933  0.57721884  0.91536465    -0.93200
O894        O  0.36637928  0.55211786  0.04481135    -0.93600
O895        O  0.42487591  0.60138825  0.07521633    -0.92400
C896        C  0.42401710  0.61209926  0.93123073     1.16700
H897        H  0.39980667  0.46923329  0.00802321     0.32600
H898        H  0.50920755  0.58120333  0.06360294     0.43500
H899        H  0.50262051  0.55296109  0.90591293     0.37000
H900        H  0.57155192  0.44152848  0.99933146     0.33500
H901        H  0.42016581  0.53777805  0.13342897     0.25300
H902        H  0.63885195  0.47506793  0.03330445     0.31200
H903        H  0.63774806  0.46976087  0.95849594     0.37100
H904        H  0.35403393  0.55105540  0.07091441     0.31600
H905        H  0.35772101  0.54653414  0.96344961     0.30500
H906        H  0.39838663  0.51369507  0.86879351     0.32100
H907        H  0.54105847  0.52028624  0.86136692     0.31100
H908        H  0.42940872  0.61862718  0.05219404     0.35100
H909        H  0.51614477  0.67076418  0.95274761     0.27800
H910        H  0.47253770  0.35113704  0.04546020     0.32100
H911        H  0.57289867  0.42293928  0.88690808     0.34900
H912        H  0.34786817  0.51382495  0.93219640     0.27500
H913        H  0.49721892  0.67262216  0.99439812     0.40400
H914        H  0.53988894  0.54371744  0.12387899     0.30500
H915        H  0.46186615  0.51323112  0.13043853     0.38100
H916        H  0.50739201  0.48655503  0.86848631     0.29900
H917        H  0.64467574  0.52222254  0.03081610     0.30000
H918        H  0.49326856  0.34614884  0.00485076     0.30300
Zr919      Zr  0.02445824  0.98685756  0.56700336     2.17500
O920        O  0.03067351  0.98903345  0.63682836    -0.52100
O921        O  0.08056104  0.93883106  0.58129854    -0.75300
O922        O  0.96867473  0.95031309  0.60018566    -0.82100
O923        O  0.09663302  0.07875510  0.55137093    -0.83800
O924        O  0.92403283  0.91894617  0.55948920    -0.79500
O925        O  0.05694009  0.04656925  0.59629253    -0.91100
O926        O  0.09574461  0.90897853  0.52416734    -0.77100
O927        O  0.00746701  0.93453343  0.52231829    -0.86500
O928        O  0.07539032  0.99181227  0.51713531    -0.86200
O929        O  0.95555278  0.00240863  0.54421183    -0.73000
O930        O  0.01749718  0.05359376  0.53956487    -0.85100
Zr931      Zr  0.98156912  0.01969216  0.41975530     2.26400
Zr932      Zr  0.93939461  0.95026022  0.49827878     2.06300
Zr933      Zr  0.06798924  0.05802853  0.48933607     2.10000
Zr934      Zr  0.05769710  0.94021260  0.47239315     1.78800
O935        O  0.06786705  0.13216015  0.49216264    -0.93900
O936        O  0.04384999  0.86776135  0.46467993    -0.41700
O937        O  0.05042080  0.00604919  0.44379719    -0.78400
O938        O  0.98991511  0.95232512  0.44754275    -0.97100
O939        O  0.93196444  0.01640144  0.47020463    -0.90400
O940        O  0.00024100  0.07226993  0.46408661    -0.93200
C941        C  0.10165575  0.91435891  0.56017183     1.00600
C942        C  0.08318721  0.07407004  0.58593536     1.13500
C943        C  0.93672641  0.92818961  0.59303374     1.04300
O944        O  0.93540234  0.87739744  0.48575459    -0.95400
O945        O  0.89686204  0.94300412  0.44120664    -0.91100
O946        O  0.93858965  0.96400302  0.39256278    -0.84200
C947        C  0.90943494  0.94112049  0.40635190     1.10900
O948        O  0.92042954  0.09074011  0.57519251    -0.97300
Zr949      Zr  0.95034262  0.06787716  0.51450776     1.88900
O950        O  0.92601564  0.07059324  0.40903664    -0.74000
O951        O  0.86629932  0.96058108  0.51411452    -0.53200
O952        O  0.87587649  0.05573520  0.51759650    -0.97900
O953        O  0.96797398  0.13655469  0.53531388    -0.55100
O954        O  0.92792418  0.11009404  0.46210754    -0.74500
C955        C  0.91332551  0.10099221  0.42922499     0.97800
O956        O  0.98090778  0.02324647  0.34978305    -0.63300
O957        O  0.14295173  0.04994824  0.48198489    -0.58100
O958        O  0.04225837  0.04870783  0.38699448    -0.94800
O959        O  0.08892099  0.08046051  0.42562255    -0.93200
O960        O  0.13020451  0.94794204  0.45434748    -0.93600
O961        O  0.07437831  0.91537275  0.40829838    -0.92400
C962        C  0.07566245  0.06947000  0.39262707     1.16700
H963        H  0.10329637  0.98870641  0.52670631     0.32600
H964        H  0.98598007  0.93005077  0.42993319     0.43500
H965        H  0.00092797  0.09858416  0.45164022     0.37000
H966        H  0.93523508  0.00293547  0.56469682     0.33500
H967        H  0.07150833  0.85514551  0.46070175     0.25300
H968        H  0.85491027  0.93288401  0.51798815     0.31200
H969        H  0.86592581  0.05752030  0.49081170     0.37100
H970        H  0.13092651  0.97261483  0.43794892     0.31600
H971        H  0.15348456  0.07788787  0.47758459     0.30500
H972        H  0.09678903  0.14008022  0.48595017     0.32100
H973        H  0.97451336  0.15166821  0.51141193     0.31100
H974        H  0.05855220  0.93339504  0.39082721     0.35100
H975        H  0.99088952  0.99625010  0.34101308     0.27800
H976        H  0.03093255  0.96030151  0.64553805     0.32100
H977        H  0.90181785  0.11373383  0.56857097     0.34900
H978        H  0.15329285  0.04252579  0.50779385     0.27500
H979        H  0.95119841  0.02407691  0.34264597     0.40400
H980        H  0.95737680  0.86513996  0.50187156     0.30500
H981        H  0.03512399  0.85831398  0.49050468     0.38100
H982        H  0.99506420  0.13367431  0.54834693     0.29900
H983        H  0.86600751  0.97300746  0.53999176     0.30000
H984        H  0.00403746  0.00032911  0.64646318     0.30300
C985        C  0.39311101  0.89317564  0.40834159     0.79500
N986        N  0.38287907  0.87667562  0.37356045    -0.78800
C987        C  0.34480703  0.85869763  0.37009027     0.81900
N988        N  0.31797211  0.85872846  0.40013332    -0.78800
C989        C  0.32819117  0.87548816  0.43382265     0.82000
N990        N  0.36591943  0.89198803  0.43794817    -0.80500
C991        C  0.18140130  0.85375846  0.61337858     0.79500
N992        N  0.21295144  0.85748118  0.58782558    -0.78800
C993        C  0.20935805  0.88116806  0.55656921     0.81900
N994        N  0.17291470  0.89993737  0.55005086    -0.78800
C995        C  0.14031385  0.89615898  0.57428552     0.82000
N996        N  0.14430855  0.87336268  0.60703772    -0.80500
C997        C  0.41233010  0.37435669  0.90454383     0.79500
N998        N  0.43869199  0.34213715  0.90530372    -0.78800
C999        C  0.43389236  0.31025154  0.88141842     0.81900
N1000       N  0.40123702  0.30991632  0.85724302    -0.78800
C1001       C  0.37412337  0.34153474  0.85559711     0.82000
N1002       N  0.37960104  0.37438031  0.87934557    -0.80500
C1003       C  0.61505534  0.15945713  0.84349904     0.79500
N1004       N  0.58239229  0.18513952  0.84667183    -0.78800
C1005       C  0.54840739  0.17573441  0.86731931     0.81900
N1006       N  0.54681490  0.13927233  0.88520336    -0.78800
C1007       C  0.57865008  0.11214872  0.88203326     0.82000
N1008       N  0.61387029  0.12246917  0.86179858    -0.80500
C1009       C  0.12816860  0.15172439  0.65244425     0.79500
N1010       N  0.09583987  0.17805384  0.65266016    -0.78800
C1011       C  0.06066394  0.17028836  0.63354390     0.81900
N1012       N  0.05759410  0.13553889  0.61336337    -0.78800
C1013       C  0.08921607  0.10825969  0.61244717     0.82000
N1014       N  0.12568895  0.11659026  0.63126067    -0.80500
C1015       C  0.92277703  0.36449147  0.58752433     0.79500
N1016       N  0.95037386  0.33338056  0.58967748    -0.78800
C1017       C  0.94544886  0.30303973  0.61542293     0.81900
N1018       N  0.91153234  0.30311530  0.63828554    -0.78800
C1019       C  0.88277369  0.33321182  0.63655402     0.82000
N1020       N  0.88828591  0.36461599  0.61102902    -0.80500
C1021       C  0.66224859  0.34905866  0.10133700     0.79500
N1022       N  0.62394517  0.36678274  0.09959854    -0.78800
C1023       C  0.60899784  0.37965500  0.06499864     0.81900
N1024       N  0.63304185  0.37580536  0.03280787    -0.78800
C1025       C  0.67132634  0.35849014  0.03411710     0.82000
N1026       N  0.68546409  0.34557699  0.06876555    -0.80500
C1027       C  0.85854997  0.41310853  0.89729959     0.79500
N1028       N  0.82698772  0.40472760  0.92209341    -0.78800
C1029       C  0.79328459  0.38329229  0.91150832     0.81900
N1030       N  0.79055915  0.37099812  0.87443518    -0.78800
C1031       C  0.82154326  0.37941067  0.84857324     0.82000
N1032       N  0.85640556  0.39955977  0.86033096    -0.80500
Zr1033     Zr  0.73329016  0.17478800  0.75996057     2.17500
O1034       O  0.73173907  0.10063609  0.75745536    -0.52100
O1035       O  0.67634803  0.15540628  0.80351684    -0.75300
O1036       O  0.78986469  0.14422749  0.79871771    -0.82100
O1037       O  0.65630576  0.18808301  0.68181486    -0.83800
O1038       O  0.83280836  0.18989648  0.82711844    -0.79500
O1039       O  0.70762521  0.14550635  0.69973098    -0.91100
O1040       O  0.65317292  0.21597667  0.82641369    -0.77100
O1041       O  0.74270458  0.22460251  0.80879777    -0.86500
O1042       O  0.67889060  0.22395944  0.75106435    -0.86200
O1043       O  0.80120086  0.20340309  0.74871433    -0.73000
O1044       O  0.74141250  0.20434088  0.69682963    -0.85100
Zr1045     Zr  0.76766115  0.33307473  0.72789587     2.26400
Zr1046     Zr  0.81022006  0.25374632  0.79782271     2.06300
Zr1047     Zr  0.68800832  0.25477629  0.68916250     2.10000
Zr1048     Zr  0.68890640  0.27343219  0.79904317     1.78800
O1049       O  0.69271071  0.24490241  0.62000369    -0.93900
O1050       O  0.69579739  0.28290275  0.86808151    -0.41700
O1051       O  0.69908270  0.30484753  0.73769704    -0.78400
O1052       O  0.75543473  0.30266589  0.79076697    -0.97100
O1053       O  0.82042797  0.28281770  0.73517039    -0.90400
O1054       O  0.75517292  0.28405178  0.67868285    -0.93200
C1055       C  0.65154815  0.17708301  0.82401081     1.00600
C1056       C  0.67732881  0.15538094  0.67757050     1.13500
C1057       C  0.82137958  0.15333766  0.82000821     1.04300
O1058       O  0.81047992  0.26043400  0.86744692    -0.95400
O1059       O  0.83734328  0.32028015  0.81518679    -0.91100
O1060       O  0.79665391  0.36728088  0.78532659    -0.84200
C1061       C  0.82097256  0.35580962  0.81275131     1.10900
O1062       O  0.83825532  0.16717642  0.67252394    -0.97300
Zr1063     Zr  0.80789660  0.23364195  0.68637251     1.88900
O1064       O  0.82879505  0.34379006  0.68457339    -0.74000
O1065       O  0.88514476  0.25058642  0.78811700    -0.53200
O1066       O  0.88300808  0.23259951  0.69442905    -0.97900
O1067       O  0.79359466  0.21195692  0.62078953    -0.55100
O1068       O  0.82872281  0.28895534  0.64567493    -0.74500
C1069       C  0.84310785  0.32334087  0.65573863     0.97800
O1070       O  0.76788474  0.40678579  0.71913395    -0.63300
O1071       O  0.61313400  0.26595271  0.68871768    -0.58100
O1072       O  0.70898561  0.36460880  0.69374333    -0.94800
O1073       O  0.66526877  0.32045820  0.66413186    -0.93200
O1074       O  0.61649204  0.28816532  0.78458257    -0.93600
O1075       O  0.66674495  0.34068902  0.82035054    -0.92400
C1076       C  0.67692637  0.35654655  0.67292903     1.16700
H1077       H  0.65166065  0.21181202  0.75278146     0.32600
H1078       H  0.75423868  0.32078914  0.81242827     0.43500
H1079       H  0.75531374  0.29677394  0.65364224     0.37000
H1080       H  0.82300004  0.18322167  0.74972378     0.33500
H1081       H  0.66709807  0.28093355  0.87828619     0.25300
H1082       H  0.89689545  0.25177649  0.81429892     0.31200
H1083       H  0.89036124  0.25949507  0.70514951     0.37100
H1084       H  0.60124817  0.28227321  0.80874112     0.31600
H1085       H  0.60265509  0.24874213  0.66759597     0.30500
H1086       H  0.66467264  0.23572152  0.61243372     0.32100
H1087       H  0.81940659  0.21756438  0.60612363     0.31100
H1088       H  0.67672243  0.35937161  0.79993396     0.35100
H1089       H  0.75394558  0.41798423  0.74225425     0.27800
H1090       H  0.73096888  0.09138580  0.78453844     0.32100
H1091       H  0.85391904  0.17051890  0.64819489     0.34900
H1092       H  0.60265717  0.25273407  0.71242945     0.27500
H1093       H  0.79731445  0.41498505  0.72159218     0.40400
H1094       H  0.78779139  0.27993047  0.87319363     0.30500
H1095       H  0.70962878  0.25778735  0.87730142     0.38100
H1096       H  0.77344203  0.23211661  0.61085576     0.29900
H1097       H  0.89079273  0.22244394  0.77934845     0.30000
H1098       H  0.75960986  0.09266516  0.74791604     0.30300
C1099       C  0.12456309  0.84246450  0.85325972     0.79500
N1100       N  0.11655120  0.87866446  0.87097051    -0.78800
C1101       C  0.07779238  0.88605602  0.88545770     0.81900
N1102       N  0.04801315  0.85708389  0.88256153    -0.78800
C1103       C  0.05555800  0.82120079  0.86462565     0.82000
N1104       N  0.09411680  0.81426590  0.85023056    -0.80500
C1105       C  0.91490312  0.62361364  0.88154116     0.79500
N1106       N  0.87590236  0.63060651  0.86770663    -0.78800
C1107       C  0.86689599  0.66750869  0.85153662     0.81900
N1108       N  0.89657487  0.69656511  0.84924178    -0.78800
C1109       C  0.93532431  0.68960288  0.86254895     0.82000
N1110       N  0.94402518  0.65325984  0.87906631    -0.80500
C1111       C  0.84911455  0.11879731  0.83048769     0.79500
N1112       N  0.85040555  0.08862262  0.80428709    -0.78800
C1113       C  0.87728015  0.05734294  0.80701267     0.81900
N1114       N  0.90308439  0.05570698  0.83731958    -0.78800
C1115       C  0.90304995  0.08504649  0.86467512     0.82000
N1116       N  0.87588923  0.11750336  0.86132405    -0.80500
C1117       C  0.90950270  0.91925674  0.62554550     0.79500
N1118       N  0.90557647  0.94892855  0.65227028    -0.78800
C1119       C  0.87730463  0.94561740  0.68071012     0.81900
N1120       N  0.85424536  0.91174396  0.68355899    -0.78800
C1121       C  0.85789417  0.88139911  0.65763409     0.82000
N1122       N  0.88571384  0.88485581  0.62805916    -0.80500
Zr1123     Zr  0.76265154  0.77010047  0.66910942     2.17500
O1124       O  0.75782298  0.76178671  0.59963805    -0.52100
O1125       O  0.80760914  0.82834100  0.65354125    -0.75300
O1126       O  0.70229065  0.80598585  0.64141109    -0.82100
O1127       O  0.84001410  0.67549353  0.67733424    -0.83800
O1128       O  0.67566726  0.84656805  0.68833435    -0.79500
O1129       O  0.80614203  0.71907032  0.63723946    -0.91100
O1130       O  0.85399596  0.83027857  0.70204771    -0.77100
O1131       O  0.76115691  0.82261901  0.71616205    -0.86500
O1132       O  0.81932738  0.75663899  0.71115832    -0.86200
O1133       O  0.69660749  0.76132021  0.70154368    -0.73000
O1134       O  0.75258493  0.70287514  0.69587713    -0.85100
Zr1135     Zr  0.74123922  0.73696459  0.81839826     2.26400
Zr1136     Zr  0.69562353  0.81499142  0.74833357     2.06300
Zr1137     Zr  0.80901403  0.69087399  0.73926216     2.10000
Zr1138     Zr  0.81727974  0.80839527  0.75853468     1.78800
O1139       O  0.80432486  0.61829663  0.72592810    -0.93900
O1140       O  0.81182855  0.88206660  0.76549007    -0.41700
O1141       O  0.80741727  0.74319388  0.78702389    -0.78400
O1142       O  0.75230416  0.80371963  0.79154934    -0.97100
O1143       O  0.68462029  0.74920013  0.77614557    -0.90400
O1144       O  0.74403974  0.68313767  0.77221690    -0.93200
C1145       C  0.83987779  0.84292662  0.67004635     1.00600
C1146       C  0.83156775  0.68951058  0.64391809     1.13500
C1147       C  0.67606592  0.83256201  0.65410844     1.04300
O1148       O  0.70465858  0.88814868  0.75558085    -0.95400
O1149       O  0.66947310  0.83615549  0.81070431    -0.91100
O1150       O  0.70052860  0.78980378  0.84979545    -0.84200
C1151       C  0.67849889  0.82196751  0.84386641     1.10900
O1152       O  0.66408523  0.67056617  0.66841094    -0.97300
Zr1153     Zr  0.68809893  0.69604979  0.73003139     1.88900
O1154       O  0.69406862  0.68256515  0.83605226    -0.74000
O1155       O  0.61997348  0.81558938  0.74676368    -0.53200
O1156       O  0.61500725  0.69809222  0.71253161    -0.97900
O1157       O  0.69719993  0.62242579  0.73386454    -0.55100
O1158       O  0.64776145  0.68801444  0.78829024    -0.74500
C1159       C  0.66051752  0.67196975  0.81948336     0.97800
O1160       O  0.74506513  0.74094105  0.88821209    -0.63300
O1161       O  0.88383672  0.69236541  0.74948573    -0.58100
O1162       O  0.80618977  0.70687020  0.84229568    -0.94800
O1163       O  0.82192025  0.65709509  0.80010091    -0.93200
O1164       O  0.89040446  0.79366287  0.76970776    -0.93600
O1165       O  0.84283445  0.83218730  0.82016872    -0.92400
C1166       C  0.82792577  0.67588989  0.83160838     1.16700
H1167       H  0.84535606  0.75671423  0.69724294     0.32600
H1168       H  0.75298523  0.82450183  0.81109358     0.43500
H1169       H  0.74224210  0.65661512  0.78416219     0.37000
H1170       H  0.67254206  0.76275595  0.68526062     0.33500
H1171       H  0.84039249  0.89231022  0.76126666     0.25300
H1172       H  0.61231903  0.84479870  0.74579869     0.31200
H1173       H  0.60336433  0.72144306  0.72698804     0.37100
H1174       H  0.90499560  0.81953745  0.76409293     0.31600
H1175       H  0.89359903  0.66477708  0.74234396     0.30500
H1176       H  0.82989466  0.60644161  0.73702858     0.32100
H1177       H  0.71954400  0.61630394  0.71509386     0.31100
H1178       H  0.84275381  0.80764065  0.83675735     0.35100
H1179       H  0.74797991  0.71241973  0.89709868     0.27800
H1180       H  0.75626579  0.78967569  0.58884457     0.32100
H1181       H  0.68376953  0.68202545  0.64931202     0.34900
H1182       H  0.89502550  0.71037719  0.72908653     0.27500
H1183       H  0.77220638  0.75366904  0.89374767     0.40400
H1184       H  0.67612732  0.89944839  0.75506781     0.30500
H1185       H  0.79620868  0.89131174  0.74268641     0.38100
H1186       H  0.67188275  0.61115818  0.72204456     0.29900
H1187       H  0.61261511  0.80494938  0.72111691     0.30000
H1188       H  0.73011560  0.74976568  0.59505629     0.30300
Zr1189     Zr  0.98133874  0.49610896  0.91302224     2.17500
O1190       O  0.97278299  0.50559955  0.84426413    -0.52100
O1191       O  0.92199248  0.45274204  0.89450749    -0.75300
O1192       O  0.03737294  0.46073013  0.87604438    -0.82100
O1193       O  0.91073076  0.58728492  0.93905093    -0.83800
O1194       O  0.08152129  0.42532436  0.91477451    -0.79500
O1195       O  0.95235100  0.56213786  0.89168949    -0.91100
O1196       O  0.89847226  0.42610909  0.95059764    -0.77100
O1197       O  0.99179955  0.43857479  0.95391785    -0.86500
O1198       O  0.93018413  0.50152318  0.96279823    -0.86200
O1199       O  0.05085663  0.50243575  0.93813364    -0.73000
O1200       O  0.99260469  0.55913379  0.94664780    -0.85100
Zr1201     Zr  0.02429424  0.51156536  0.06248718     2.26400
Zr1202     Zr  0.06072605  0.44462742  0.97967454     2.06300
Zr1203     Zr  0.94258050  0.56290929  0.99766834     2.10000
Zr1204     Zr  0.94116735  0.44492161  0.00369380     1.78800
O1205       O  0.94787922  0.63687848  0.99733865    -0.93900
O1206       O  0.94815015  0.37108445  0.00031284    -0.41700
O1207       O  0.95435765  0.50571878  0.03901558    -0.78400
O1208       O  0.00916151  0.44867913  0.02951153    -0.97100
O1209       O  0.07455353  0.50743092  0.01217308    -0.90400
O1210       O  0.01160630  0.56943411  0.02245547    -0.93200
C1211       C  0.89596393  0.43155301  0.91436078     1.00600
C1212       C  0.92512764  0.58763791  0.90471321     1.13500
C1213       C  0.06945439  0.43747190  0.88157300     1.04300
O1214       O  0.05907273  0.37106685  0.97131861    -0.95400
O1215       O  0.08348420  0.41253902  0.03947077    -0.91100
O1216       O  0.06132319  0.45211235  0.08926341    -0.84200
C1217       C  0.07892441  0.41993336  0.07554442     1.10900
O1218       O  0.07904590  0.58895140  0.90741492    -0.97300
Zr1219     Zr  0.06101800  0.56458737  0.97162222     1.88900
O1220       O  0.07715391  0.56212332  0.08096473    -0.74000
O1221       O  0.13608254  0.45081515  0.97936869    -0.53200
O1222       O  0.13474024  0.55435531  0.95855382    -0.97900
O1223       O  0.05130793  0.63803262  0.96590024    -0.55100
O1224       O  0.09649445  0.59278545  0.02529926    -0.74500
C1225       C  0.09917445  0.58759769  0.06155695     0.97800
O1226       O  0.03093222  0.50207982  0.13176731    -0.63300
O1227       O  0.86770800  0.55948052  0.00822853    -0.58100
O1228       O  0.96621602  0.54142391  0.09795280    -0.94800
O1229       O  0.92331206  0.58179933  0.06288702    -0.93200
O1230       O  0.87226927  0.46203194  0.02797540    -0.93600
O1231       O  0.91912131  0.40980390  0.06191795    -0.92400
C1232       C  0.93522543  0.56598049  0.09464894     1.16700
H1233       H  0.90247349  0.50246690  0.95243624     0.32600
H1234       H  0.00919835  0.42534776  0.04632870     0.43500
H1235       H  0.01417211  0.59451207  0.03667610     0.37000
H1236       H  0.07208823  0.50379262  0.91854325     0.33500
H1237       H  0.91935043  0.36074151  0.99886884     0.25300
H1238       H  0.14633286  0.42310744  0.97328507     0.31200
H1239       H  0.14810930  0.58033466  0.96577435     0.37100
H1240       H  0.85652175  0.47115941  0.00518209     0.31600
H1241       H  0.85829905  0.58820188  0.00762334     0.30500
H1242       H  0.96182389  0.64355380  0.97269750     0.32100
H1243       H  0.07973515  0.64945747  0.96609372     0.31100
H1244       H  0.93632017  0.42178641  0.08245880     0.35100
H1245       H  0.02880753  0.52963959  0.14310214     0.27800
H1246       H  0.97623341  0.47829425  0.83266169     0.32100
H1247       H  0.10340141  0.60696787  0.91046946     0.34900
H1248       H  0.85607307  0.54743233  0.98460944     0.27500
H1249       H  0.00528311  0.48791169  0.14011948     0.40400
H1250       H  0.03745447  0.36154657  0.98955200     0.30500
H1251       H  0.95996094  0.36567149  0.97450889     0.38100
H1252       H  0.03913768  0.64661186  0.99077012     0.26700
H1253       H  0.14256276  0.46710900  0.95613926     0.30000
H1254       H  0.99767891  0.52117857  0.83636823     0.30300
C1255       C  0.40065833  0.07107827  0.63158156     0.79500
N1256       N  0.37785884  0.10598200  0.63776175    -0.78800
C1257       C  0.35226402  0.10815315  0.66945468     0.81900
N1258       N  0.35052043  0.07639669  0.69403603    -0.78800
C1259       C  0.37323254  0.04245653  0.68836976     0.82000
N1260       N  0.39776557  0.03989971  0.65695366    -0.80500
C1261       C  0.40794332  0.91234303  0.87298358     0.79500
N1262       N  0.40301206  0.94026129  0.84469199    -0.78800
C1263       C  0.37431421  0.93472159  0.81719597     0.81900
N1264       N  0.35169089  0.90044905  0.81676524    -0.78800
C1265       C  0.35641763  0.87188473  0.84423657     0.82000
N1266       N  0.38460584  0.87753275  0.87291636    -0.80500
C1267       C  0.13338525  0.61075054  0.07885425     0.79500
N1268       N  0.16528986  0.61940354  0.05457572    -0.78800
C1269       C  0.19857085  0.64029077  0.06644755     0.81900
N1270       N  0.20000328  0.65344390  0.10271892    -0.78800
C1271       C  0.16886592  0.64559103  0.12772900     0.82000
N1272       N  0.13489669  0.62361499  0.11630960    -0.80500
C1273       C  0.33895103  0.67804042  0.89389888     0.79500
N1274       N  0.37472267  0.65541039  0.89401293    -0.78800
C1275       C  0.38915723  0.64044043  0.92814752     0.81900
N1276       N  0.36673250  0.64587019  0.96069907    -0.78800
C1277       C  0.33083959  0.66705561  0.96034709     0.82000
N1278       N  0.31724415  0.68308294  0.92701130    -0.80500
Zr1279     Zr  0.25192987  0.74422677  0.67649503     2.17500
O1280       O  0.26428760  0.75006868  0.60740754    -0.52100
O1281       O  0.20607239  0.69004825  0.65333343    -0.75300
O1282       O  0.31368002  0.70627785  0.65321067    -0.82100
O1283       O  0.17604577  0.84058082  0.67978149    -0.83800
O1284       O  0.33825653  0.66773784  0.70244649    -0.79500
O1285       O  0.21622373  0.79936587  0.64232382    -0.91100
O1286       O  0.15761732  0.68120155  0.70015758    -0.77100
O1287       O  0.24704696  0.69061377  0.72269559    -0.86500
O1288       O  0.19050810  0.75726272  0.71315127    -0.86200
O1289       O  0.31396717  0.75127224  0.71499661    -0.73000
O1290       O  0.25942603  0.81082375  0.70520748    -0.85100
Zr1291     Zr  0.25387560  0.77398872  0.82831300     2.26400
Zr1292     Zr  0.30833816  0.69687110  0.76097475     2.06300
Zr1293     Zr  0.19802272  0.82219952  0.74351559     2.10000
Zr1294     Zr  0.18620175  0.70475397  0.75983583     1.78800
O1295       O  0.20615174  0.89527055  0.73423798    -0.93900
O1296       O  0.18455809  0.63140824  0.76994110    -0.41700
O1297       O  0.19265685  0.76902339  0.79017095    -0.78400
O1298       O  0.24695001  0.70781629  0.79916165    -0.97100
O1299       O  0.31522778  0.76177671  0.79090008    -0.90400
O1300       O  0.25826819  0.82913546  0.78294938    -0.93200
C1301       C  0.17328236  0.67321529  0.66718094     1.00600
C1302       C  0.19038940  0.82903454  0.64731310     1.13500
C1303       C  0.33921468  0.67998801  0.66743159     1.04300
O1304       O  0.29291727  0.62503117  0.77047364    -0.95400
O1305       O  0.33313021  0.68342708  0.82579862    -0.91100
O1306       O  0.29349802  0.72388756  0.86444594    -0.84200
C1307       C  0.32124463  0.69622409  0.85889863     1.10900
O1308       O  0.36051690  0.82306607  0.68735701    -0.97300
Zr1309     Zr  0.31908107  0.81589235  0.74579843     1.88900
O1310       O  0.29904990  0.82777348  0.85097572    -0.74000
O1311       O  0.38345031  0.68909715  0.76587682    -0.53200
O1312       O  0.39152835  0.83742004  0.74464484    -0.97900
O1313       O  0.30275270  0.88824689  0.74150625    -0.55100
O1314       O  0.34906351  0.81180284  0.80964417    -0.74500
C1315       C  0.33534361  0.83356057  0.83719791     0.97800
O1316       O  0.23820796  0.76789591  0.89670758    -0.63300
O1317       O  0.12234457  0.82218785  0.74436349    -0.58100
O1318       O  0.18633400  0.80398262  0.84647414    -0.94800
O1319       O  0.17089808  0.85208077  0.80206916    -0.93200
O1320       O  0.11314943  0.72407573  0.76217459    -0.93600
O1321       O  0.15488199  0.68121082  0.81967016    -0.92400
C1322       C  0.16409025  0.83377645  0.83391093     1.16700
H1323       H  0.16634423  0.75754173  0.69685464     0.32600
H1324       H  0.24468093  0.68689026  0.81860460     0.43500
H1325       H  0.25862544  0.85547695  0.79523791     0.37000
H1326       H  0.33960840  0.74910007  0.70072912     0.33500
H1327       H  0.16210065  0.62126174  0.75324771     0.25300
H1328       H  0.38908727  0.65997574  0.76059862     0.31200
H1329       H  0.39170172  0.86530327  0.75533639     0.37100
H1330       H  0.09791867  0.69877092  0.75606714     0.31600
H1331       H  0.11437501  0.85079984  0.73912330     0.30500
H1332       H  0.17875255  0.90699809  0.74111501     0.32100
H1333       H  0.28802466  0.89114224  0.71677822     0.31100
H1334       H  0.16046938  0.70324822  0.83828859     0.35100
H1335       H  0.23283171  0.79596377  0.90584750     0.27800
H1336       H  0.26213450  0.72201217  0.59725336     0.32100
H1337       H  0.34854762  0.84704734  0.67408134     0.34900
H1338       H  0.11399772  0.80714960  0.72106504     0.27500
H1339       H  0.21105576  0.75387806  0.89842222     0.40400
H1340       H  0.31610409  0.61043467  0.75771243     0.30500
H1341       H  0.21049647  0.62137686  0.75792831     0.38100
H1342       H  0.32977171  0.90168684  0.73682125     0.29900
H1343       H  0.39513847  0.70391270  0.74350007     0.30000
H1344       H  0.29390979  0.75739885  0.60419216     0.30300
C1345       C  0.24688091  0.68673345  0.03404630    -0.06500
C1346       C  0.23421973  0.64663239  0.04117577    -0.00600
C1347       C  0.25704979  0.61348474  0.02615136    -0.09200
C1348       C  0.29072603  0.62186525  0.00189072    -0.06600
C1349       C  0.30136181  0.66200507  0.99212042    -0.00600
C1350       C  0.28021676  0.69510640  0.00921504    -0.09100
C1351       C  0.29267504  0.73879419  0.00121437     0.61300
H1352       H  0.22953573  0.71144202  0.04712388     0.12000
H1353       H  0.30751144  0.59697926  0.98856298     0.12000
C1354       C  0.24587134  0.56963334  0.03570564     0.61500
F1355       F  0.27239654  0.76574200  0.02547932    -0.23700
F1356       F  0.28281882  0.74896799  0.96388359    -0.21000
F1357       F  0.33495622  0.74330043  0.00644281    -0.20700
F1358       F  0.20833055  0.55980654  0.01913122    -0.20700
F1359       F  0.24284225  0.56472976  0.07510739    -0.21000
F1360       F  0.27542644  0.54246464  0.02220213    -0.23700
C1361       C  0.33746621  0.00805881  0.74176351    -0.06500
C1362       C  0.37335239  0.01094136  0.71859333    -0.00600
C1363       C  0.40932931  0.98802551  0.72825017    -0.09200
C1364       C  0.40803647  0.96369475  0.76119351    -0.06600
C1365       C  0.37268752  0.96202182  0.78446708    -0.00600
C1366       C  0.33673092  0.98435545  0.77517113    -0.09100
C1367       C  0.29883747  0.98481403  0.80143568     0.61300
H1368       H  0.31016730  0.02549881  0.73405524     0.12000
H1369       H  0.43472908  0.94544381  0.76917231     0.12000
C1370       C  0.44918379  0.98932854  0.70482460     0.61500
F1371       F  0.26889948  0.01197913  0.78881774    -0.23700
F1372       F  0.31052462  0.99633142  0.83799322    -0.21000
F1373       F  0.28108856  0.94657398  0.80308527    -0.20700
F1374       F  0.46303806  0.02905827  0.70163523    -0.20700
F1375       F  0.44186965  0.97320367  0.66883922    -0.21000
F1376       F  0.48071968  0.96679369  0.72150110    -0.23700
C1377       C  0.91304863  0.97942509  0.73298491    -0.06500
C1378       C  0.87658524  0.97500080  0.71192910    -0.00600
C1379       C  0.84039475  0.99667906  0.72209359    -0.09200
C1380       C  0.84175179  0.02176934  0.75446906    -0.06600
C1381       C  0.87837045  0.02662908  0.77598421    -0.00600
C1382       C  0.91494025  0.00515884  0.76490703    -0.09100
C1383       C  0.95603987  0.00940444  0.78564749     0.61300
H1384       H  0.94008004  0.96194029  0.72429069     0.12000
H1385       H  0.81400942  0.03818726  0.76294842     0.12000
C1386       C  0.80134064  0.99470422  0.69782667     0.61500
F1387       F  0.98782097  0.98843481  0.76735096    -0.23700
F1388       F  0.95226401  0.99369865  0.82237027    -0.21000
F1389       F  0.96741517  0.04997209  0.78708489    -0.20700
F1390       F  0.78492472  0.95589799  0.69884922    -0.20700
F1391       F  0.81092036  0.00486764  0.66021870    -0.21000
F1392       F  0.77100137  0.02137759  0.71071641    -0.23700
C1393       C  0.03682308  0.74854317  0.85463326    -0.06500
C1394       C  0.02325669  0.78861803  0.86226533    -0.00600
C1395       C  0.97989543  0.79596089  0.86673226    -0.09200
C1396       C  0.95266310  0.76257398  0.86684676    -0.06600
C1397       C  0.96665116  0.72255316  0.86103863    -0.00600
C1398       C  0.00924939  0.71546208  0.85313303    -0.09100
C1399       C  0.02568074  0.67357898  0.84215660     0.61300
H1400       H  0.06963036  0.74289951  0.85026903     0.12000
H1401       H  0.91984053  0.76754273  0.87200162     0.12000
C1402       C  0.96164365  0.83851855  0.87019014     0.61500
F1403       F  0.06619918  0.67524757  0.82885124    -0.23700
F1404       F  0.00167014  0.65717057  0.81324211    -0.21000
F1405       F  0.02491611  0.64810096  0.87376564    -0.20700
F1406       F  0.97658711  0.86282341  0.84068830    -0.20700
F1407       F  0.97192528  0.85510379  0.90528893    -0.21000
F1408       F  0.91877178  0.83840977  0.86772767    -0.23700
C1409       C  0.71969001  0.36950056  0.93233347    -0.06500
C1410       C  0.76213498  0.37069772  0.94143345    -0.00600
C1411       C  0.77410782  0.36041888  0.97946935    -0.09200
C1412       C  0.74340498  0.35669136  0.00806830    -0.06600
C1413       C  0.70066991  0.35911857  0.00006652    -0.00600
C1414       C  0.68864242  0.36251665  0.96074047    -0.09100
C1415       C  0.64398128  0.35711825  0.94805042     0.61300
H1416       H  0.71093265  0.37489074  0.90277443     0.12000
H1417       H  0.75332808  0.35248831  0.03745906     0.12000
C1418       C  0.81901721  0.35275808  0.99069214     0.61500
F1419       F  0.64070143  0.35686298  0.90842419    -0.23700
F1420       F  0.61966195  0.38851422  0.96160442    -0.21000
F1421       F  0.62869791  0.32051749  0.96180947    -0.20700
F1422       F  0.83825122  0.38937404  0.99806439    -0.20700
F1423       F  0.84008729  0.33241705  0.96174218    -0.21000
F1424       F  0.82157521  0.32886556  0.02344330    -0.23700
C1425       C  0.04547090  0.24142542  0.61794746    -0.06500
C1426       C  0.03017871  0.20310906  0.62872447    -0.00600
C1427       C  0.98737755  0.19759277  0.63539414    -0.09200
C1428       C  0.96064059  0.23067190  0.62889516    -0.06600
C1429       C  0.97581310  0.26935547  0.61836078    -0.00600
C1430       C  0.01920935  0.27515040  0.61350444    -0.09100
C1431       C  0.03835655  0.31652989  0.60492657     0.61300
H1432       H  0.07857037  0.24474985  0.61315461     0.12000
H1433       H  0.92752021  0.22656740  0.63241258     0.12000
C1434       C  0.97062173  0.15792919  0.65169140     0.61500
F1435       F  0.08115676  0.31579193  0.60818220    -0.23700
F1436       F  0.02342014  0.34527562  0.63053377    -0.21000
F1437       F  0.02900953  0.32824451  0.56785271    -0.20700
F1438       F  0.99134226  0.14837810  0.68522619    -0.20700
F1439       F  0.97610005  0.12676854  0.62562580    -0.21000
F1440       F  0.92879668  0.16057317  0.66027751    -0.23700
C1441       C  0.53328889  0.24769296  0.88029718    -0.06500
C1442       C  0.51756511  0.20829177  0.87462828    -0.00600
C1443       C  0.47415196  0.20224728  0.87347908    -0.09200
C1444       C  0.44794139  0.23637430  0.87697963    -0.06600
C1445       C  0.46374044  0.27592760  0.88145634    -0.00600
C1446       C  0.50728311  0.28182632  0.88335876    -0.09100
C1447       C  0.52670493  0.32381430  0.88692575     0.61300
H1448       H  0.56662463  0.25164857  0.88186246     0.12000
H1449       H  0.41464912  0.23244395  0.87587743     0.12000
C1450       C  0.45556652  0.16040138  0.86757066     0.61500
F1451       F  0.56930300  0.32261340  0.88164211    -0.23700
F1452       F  0.51888947  0.33934294  0.92313829    -0.21000
F1453       F  0.51058994  0.34975025  0.85937860    -0.20700
F1454       F  0.46562562  0.13564487  0.89816530    -0.20700
F1455       F  0.47085696  0.14346547  0.83400934    -0.21000
F1456       F  0.41274636  0.16184971  0.86518912    -0.23700
C1457       C  0.22957467  0.89314489  0.48959720    -0.06500
C1458       C  0.24212858  0.88248991  0.52689828    -0.00600
C1459       C  0.28450753  0.87303647  0.53388905    -0.09200
C1460       C  0.31121764  0.86940984  0.50219509    -0.06600
C1461       C  0.29785077  0.87839584  0.46495562    -0.00600
C1462       C  0.25718177  0.89298144  0.45869482    -0.09100
C1463       C  0.24298448  0.90965944  0.42015806     0.61300
H1464       H  0.19754545  0.90129857  0.48429947     0.12000
H1465       H  0.34303628  0.85977567  0.50629280     0.12000
C1466       C  0.30249956  0.86896140  0.57401322     0.61500
F1467       F  0.20613394  0.93108423  0.42341941    -0.23700
F1468       F  0.23675557  0.87808927  0.39481909    -0.21000
F1469       F  0.27239238  0.93609428  0.40532646    -0.20700
F1470       F  0.29003398  0.83284452  0.59070380    -0.20700
F1471       F  0.28953385  0.90130555  0.59650517    -0.21000
F1472       F  0.34551573  0.86919495  0.57333285    -0.23700
C1473       C  0.36277400  0.54158491  0.26301983    -0.06500
C1474       C  0.40376166  0.55496152  0.26703446    -0.00600
C1475       C  0.43595939  0.53699385  0.24531528    -0.09200
C1476       C  0.42608837  0.50411592  0.22138618    -0.06600
C1477       C  0.38503451  0.48999679  0.21790865    -0.00600
C1478       C  0.35254329  0.50970132  0.23833753    -0.09100
C1479       C  0.30721495  0.49817700  0.23376553     0.61300
H1480       H  0.33866018  0.55616895  0.27996886     0.12000
H1481       H  0.45039078  0.48944123  0.20477695     0.12000
C1482       C  0.47971779  0.55394165  0.24590347     0.61500
F1483       F  0.28085577  0.52559661  0.25179860    -0.23700
F1484       F  0.30053377  0.46033403  0.24994374    -0.21000
F1485       F  0.29690983  0.49743901  0.19526090    -0.20700
F1486       F  0.49655317  0.54933533  0.28200537    -0.20700
F1487       F  0.47873516  0.59490222  0.23654224    -0.21000
F1488       F  0.50547962  0.53437946  0.21982031    -0.23700
C1489       C  0.80740067  0.85100702  0.98223160    -0.06500
C1490       C  0.79510693  0.84845188  0.02076944    -0.00600
C1491       C  0.75276053  0.85202812  0.03148541    -0.09200
C1492       C  0.72364752  0.85672555  0.00237304    -0.06600
C1493       C  0.73589032  0.85961084  0.96386999    -0.00600
C1494       C  0.77833066  0.85737575  0.95322332    -0.09100
C1495       C  0.79313704  0.86442195  0.91214439     0.61300
H1496       H  0.84024712  0.84976652  0.97531171     0.12000
H1497       H  0.69090632  0.85883325  0.00947890     0.12000
C1498       C  0.73833242  0.85341488  0.07322537     0.61500
F1499       F  0.83582321  0.86863451  0.90993070    -0.23700
F1500       F  0.77548605  0.89968719  0.89767700    -0.21000
F1501       F  0.78221226  0.83188661  0.88933422    -0.20700
F1502       F  0.75890876  0.88399731  0.09259400    -0.20700
F1503       F  0.74613419  0.81646843  0.09085960    -0.21000
F1504       F  0.69614325  0.86118863  0.07632153    -0.23700
C1505       C  0.97408934  0.73231040  0.38689627    -0.06500
C1506       C  0.01468143  0.74336489  0.37619239    -0.00600
C1507       C  0.02445868  0.78505725  0.37062097    -0.09200
C1508       C  0.99238351  0.81391308  0.37356783    -0.06600
C1509       C  0.95128946  0.80245893  0.38173055    -0.00600
C1510       C  0.94209598  0.76119205  0.39013012    -0.09100
C1511       C  0.89921862  0.74759587  0.40343825     0.61300
H1512       H  0.96728308  0.70045594  0.39196596     0.12000
H1513       H  0.99894631  0.84567498  0.36769681     0.12000
C1514       C  0.06802518  0.79940782  0.36072688     0.61500
F1515       F  0.89949119  0.70789316  0.41692922    -0.23700
F1516       F  0.87159787  0.74950157  0.37332764    -0.21000
F1517       F  0.88538903  0.77240331  0.43294909    -0.20700
F1518       F  0.07682762  0.78982476  0.32289030    -0.20700
F1519       F  0.09687709  0.78122900  0.38460954    -0.21000
F1520       F  0.07197947  0.84104189  0.36502009    -0.23700
C1521       C  0.63388640  0.04412368  0.22442722    -0.06500
C1522       C  0.59449609  0.06233726  0.22393916    -0.00600
C1523       C  0.56162575  0.04628264  0.24590497    -0.09200
C1524       C  0.56896701  0.01065096  0.26689226    -0.06600
C1525       C  0.60836540  0.99195637  0.26742722    -0.00600
C1526       C  0.64172762  0.00914567  0.24629153    -0.09100
C1527       C  0.68536457  0.99146965  0.24717685     0.61300
H1528       H  0.65828261  0.05710540  0.20668404     0.12000
H1529       H  0.54392359  0.99720836  0.28340108     0.12000
C1530       C  0.51984005  0.06775746  0.24823356     0.61500
F1531       F  0.71354747  0.01571159  0.22754451    -0.23700
F1532       F  0.68560474  0.95357393  0.23011210    -0.21000
F1533       F  0.69869943  0.98799143  0.28473511    -0.20700
F1534       F  0.50145328  0.06890760  0.21253373    -0.20700
F1535       F  0.52548388  0.10719670  0.26104401    -0.21000
F1536       F  0.49284550  0.04836546  0.27330071    -0.23700
C1537       C  0.86321021  0.45655592  0.25462957    -0.06500
C1538       C  0.90214115  0.44673956  0.26998311    -0.00600
C1539       C  0.93796424  0.46815669  0.25790072    -0.09200
C1540       C  0.93326872  0.49994050  0.23127947    -0.06600
C1541       C  0.89408181  0.51083391  0.21728637    -0.00600
C1542       C  0.85843796  0.48864885  0.22843685    -0.09100
C1543       C  0.81583548  0.49843553  0.21232017     0.61300
H1544       H  0.83625035  0.43979586  0.26447048     0.12000
H1545       H  0.96009726  0.51707453  0.22160940     0.12000
C1546       C  0.98089843  0.45670181  0.27210989     0.61500
F1547       F  0.78610041  0.47089896  0.22466478    -0.23700
F1548       F  0.81734838  0.49721986  0.17262935    -0.21000
F1549       F  0.80345943  0.53680577  0.22401921    -0.20700
F1550       F  0.98756178  0.41552383  0.26642508    -0.20700
F1551       F  0.98437432  0.46543115  0.31075828    -0.21000
F1552       F  0.01174705  0.47781539  0.25270773    -0.23700
C1553       C  0.16702598  0.49417460  0.74633308    -0.06500
C1554       C  0.12682131  0.48249039  0.75786549    -0.00600
C1555       C  0.09188570  0.49624375  0.73702222    -0.09200
C1556       C  0.09839473  0.52394014  0.70698128    -0.06600
C1557       C  0.13844278  0.53658452  0.69668759    -0.00600
C1558       C  0.17355955  0.52061315  0.71541854    -0.09100
C1559       C  0.21748241  0.52976437  0.70160414     0.61300
H1560       H  0.19352872  0.48220446  0.76174591     0.12000
H1561       H  0.07215582  0.53645192  0.69153548     0.12000
C1562       C  0.04831596  0.48121062  0.74552759     0.61500
F1563       F  0.24681264  0.50716406  0.72134021    -0.23700
F1564       F  0.22661769  0.57042828  0.70669220    -0.21000
F1565       F  0.22107595  0.52037731  0.66301703    -0.20700
F1566       F  0.03555275  0.49571973  0.78074830    -0.20700
F1567       F  0.04769247  0.43909277  0.74593508    -0.21000
F1568       F  0.02011241  0.49443485  0.71829233    -0.23700
C1569       C  0.23154949  0.16397951  0.02980664    -0.06500
C1570       C  0.27424981  0.15727219  0.02563781    -0.00600
C1571       C  0.29181828  0.15878797  0.98793893    -0.09200
C1572       C  0.26537220  0.15710058  0.95594272    -0.06600
C1573       C  0.22220301  0.15800550  0.96037065    -0.00600
C1574       C  0.20537295  0.16618134  0.99756905    -0.09100
C1575       C  0.16004438  0.17608575  0.00502230     0.61300
H1576       H  0.21810583  0.16545606  0.05840154     0.12000
H1577       H  0.27859199  0.15278467  0.92752107     0.12000
C1578       C  0.33815047  0.15910001  0.98019183     0.61500
F1579       F  0.15717117  0.20996568  0.02846706    -0.23700
F1580       F  0.14157713  0.14348313  0.02349489    -0.21000
F1581       F  0.13852418  0.18486966  0.97175561    -0.20700
F1582       F  0.35094476  0.11997266  0.97172668    -0.20700
F1583       F  0.36024504  0.17381410  0.01116026    -0.21000
F1584       F  0.34714354  0.18396265  0.94911024    -0.23700
C1585       C  0.61283839  0.55075431  0.74540663    -0.06500
C1586       C  0.62316765  0.53683985  0.78226759    -0.00600
C1587       C  0.63383144  0.49546961  0.78812164    -0.09200
C1588       C  0.63140607  0.46900525  0.75685017    -0.06600
C1589       C  0.62136938  0.48296404  0.71988941    -0.00600
C1590       C  0.61313849  0.52485046  0.71361640    -0.09100
C1591       C  0.60628207  0.54285438  0.67385877     0.61300
H1592       H  0.60475891  0.58254277  0.74158868     0.12000
H1593       H  0.63780384  0.43691300  0.76109022     0.12000
C1594       C  0.64950369  0.47930630  0.82631469     0.61500
F1595       F  0.60707488  0.58502392  0.67429264    -0.23700
F1596       F  0.56804308  0.53103018  0.66015584    -0.21000
F1597       F  0.63722217  0.52987318  0.64897066    -0.20700
F1598       F  0.61744808  0.47837163  0.85263679    -0.20700
F1599       F  0.68092383  0.50391391  0.83988191    -0.21000
F1600       F  0.66522891  0.44016005  0.82311194    -0.23700
C1601       C  0.51313578  0.21648246  0.36519208    -0.06500
C1602       C  0.47098080  0.22286271  0.37251218    -0.00600
C1603       C  0.45652620  0.26231669  0.38214559    -0.09200
C1604       C  0.48335250  0.29538815  0.37662736    -0.06600
C1605       C  0.52466189  0.28945195  0.36503923    -0.00600
C1606       C  0.54075366  0.24920674  0.36249335    -0.09100
C1607       C  0.58641371  0.24014848  0.35595946     0.61300
H1608       H  0.52402531  0.18576701  0.35967226     0.12000
H1609       H  0.47186979  0.32605420  0.38139853     0.12000
C1610       C  0.41439182  0.27100838  0.40006641     0.61500
F1611       F  0.59610302  0.20060815  0.36658692    -0.23700
F1612       F  0.61079835  0.26588769  0.37766353    -0.21000
F1613       F  0.59573372  0.24492079  0.31744416    -0.20700
F1614       F  0.42004397  0.29139244  0.43436306    -0.20700
F1615       F  0.39184017  0.23622014  0.40807147    -0.21000
F1616       F  0.39165197  0.29552207  0.37573708    -0.23700
C1617       C  0.22884793  0.35454546  0.53970065    -0.06500
C1618       C  0.27100665  0.36104921  0.53148752    -0.00600
C1619       C  0.28479548  0.35725107  0.49267719    -0.09200
C1620       C  0.25521665  0.35512834  0.46326440    -0.06600
C1621       C  0.21255022  0.35332035  0.47110398    -0.00600
C1622       C  0.19943346  0.34912126  0.51017806    -0.09100
C1623       C  0.15531180  0.33741563  0.52119667     0.61300
H1624       H  0.21874108  0.35497419  0.56942856     0.12000
H1625       H  0.26559283  0.35636044  0.43363995     0.12000
C1626       C  0.33039788  0.35487277  0.48148945     0.61500
F1627       F  0.15293594  0.32429072  0.55897892    -0.23700
F1628       F  0.14185406  0.30585719  0.49820186    -0.21000
F1629       F  0.12897715  0.37032786  0.51718239    -0.20700
F1630       F  0.35206169  0.33145918  0.50775040    -0.20700
F1631       F  0.34698953  0.39351164  0.47973517    -0.21000
F1632       F  0.33564137  0.33705478  0.44577944    -0.23700
C1633       C  0.54957189  0.74714510  0.62322551    -0.06500
C1634       C  0.53663055  0.78806163  0.62104284    -0.00600
C1635       C  0.49319769  0.79649574  0.62195469    -0.09200
C1636       C  0.46491495  0.76378264  0.62470719    -0.06600
C1637       C  0.47789797  0.72286483  0.62570759    -0.00600
C1638       C  0.52128908  0.71441576  0.62514218    -0.09100
C1639       C  0.53831551  0.67125430  0.62670784     0.61300
H1640       H  0.58254448  0.74072856  0.62249537     0.12000
H1641       H  0.43189129  0.77002358  0.62492434     0.12000
C1642       C  0.47612655  0.83954766  0.61941964     0.61500
F1643       F  0.58100229  0.67050011  0.63109631    -0.23700
F1644       F  0.52932692  0.65140336  0.59288190    -0.21000
F1645       F  0.52094646  0.65041258  0.65738307    -0.20700
F1646       F  0.48445056  0.85499616  0.58324195    -0.20700
F1647       F  0.49406972  0.86390630  0.64709166    -0.21000
F1648       F  0.43356563  0.84094773  0.62509286    -0.23700
C1649       C  0.11073698  0.97584047  0.28620666    -0.06500
C1650       C  0.12102215  0.01467918  0.27200622    -0.00600
C1651       C  0.12337985  0.02163975  0.23189648    -0.09200
C1652       C  0.11775091  0.98844644  0.20754436    -0.06600
C1653       C  0.10752107  0.94976678  0.22186217    -0.00600
C1654       C  0.10241303  0.94339938  0.26157344    -0.09100
C1655       C  0.08551487  0.90375658  0.27758628     0.61300
H1656       H  0.10822111  0.97129867  0.31695661     0.12000
H1657       H  0.12106589  0.99253043  0.17678905     0.12000
C1658       C  0.12997774  0.06367284  0.21447460     0.61500
F1659       F  0.07860107  0.90605916  0.31676580    -0.23700
F1660       F  0.11323319  0.87247117  0.27077633    -0.21000
F1661       F  0.04810899  0.89490844  0.26020129    -0.20700
F1662       F  0.16993608  0.07665305  0.22158857    -0.20700
F1663       F  0.10179864  0.09100589  0.23002622    -0.21000
F1664       F  0.12445593  0.06369883  0.17505942    -0.23700
C1665       C  0.56529839  0.77759611  0.12583742    -0.06500
C1666       C  0.55180647  0.73782038  0.11802762    -0.00600
C1667       C  0.50915937  0.72778655  0.12288920    -0.09200
C1668       C  0.48148328  0.75867395  0.13383452    -0.06600
C1669       C  0.49478698  0.79868169  0.14013471    -0.00600
C1670       C  0.53741792  0.80837924  0.13696022    -0.09100
C1671       C  0.55341334  0.85068652  0.14607457     0.61300
H1672       H  0.59796660  0.78454791  0.12265977     0.12000
H1673       H  0.44863637  0.75203576  0.13621788     0.12000
C1674       C  0.49239737  0.68491079  0.11719399     0.61500
F1675       F  0.59627382  0.85182714  0.14747132    -0.23700
F1676       F  0.53816997  0.86314084  0.18138432    -0.21000
F1677       F  0.54080194  0.87777520  0.11813347    -0.20700
F1678       F  0.51570300  0.65719702  0.13796066    -0.20700
F1679       F  0.49367476  0.67499166  0.07863365    -0.21000
F1680       F  0.45158115  0.68139606  0.12951140    -0.23700
C1681       C  0.75801209  0.61209126  0.47722885    -0.06500
C1682       C  0.74546810  0.64788349  0.45852882    -0.00600
C1683       C  0.76556874  0.68540149  0.46680637    -0.09200
C1684       C  0.79664497  0.68558573  0.49476836    -0.06600
C1685       C  0.80841045  0.64989630  0.51356922    -0.00600
C1686       C  0.78910025  0.61245290  0.50500034    -0.09100
C1687       C  0.79991735  0.57349683  0.52635872     0.61300
H1688       H  0.74285649  0.58368769  0.47017778     0.12000
H1689       H  0.81209203  0.71367144  0.50241678     0.12000
C1690       C  0.75478151  0.72512686  0.44677548     0.61500
F1691       F  0.77514198  0.54118369  0.51543031    -0.23700
F1692       F  0.79459100  0.57923826  0.56542093    -0.21000
F1693       F  0.84070179  0.56304275  0.51888540    -0.20700
F1694       F  0.71253647  0.73251141  0.44935553    -0.20700
F1695       F  0.76689629  0.72281370  0.40869370    -0.21000
F1696       F  0.77500773  0.75805987  0.46286470    -0.23700
C1697       C  0.79993577  0.13216503  0.51699730    -0.06500
C1698       C  0.78526628  0.15074130  0.48288414    -0.00600
C1699       C  0.74485443  0.16857615  0.48338752    -0.09200
C1700       C  0.72051813  0.16489111  0.51690005    -0.06600
C1701       C  0.73421140  0.14306626  0.54904520    -0.00600
C1702       C  0.77457492  0.12672298  0.54955541    -0.09100
C1703       C  0.78966085  0.10165498  0.58347969     0.61300
H1704       H  0.83114053  0.12023272  0.51778520     0.12000
H1705       H  0.68916507  0.17692585  0.51754479     0.12000
C1706       C  0.72597875  0.18965320  0.44876513     0.61500
F1707       F  0.82883462  0.08573344  0.57728858    -0.23700
F1708       F  0.76296320  0.06943644  0.59016319    -0.21000
F1709       F  0.79108781  0.12576691  0.61582702    -0.20700
F1710       F  0.71997461  0.16142554  0.41991621    -0.20700
F1711       F  0.75184023  0.22053264  0.43609528    -0.21000
F1712       F  0.68780088  0.20707876  0.45713501    -0.23700
C1713       C  0.96447426  0.25582253  0.12144778    -0.06500
C1714       C  0.98090898  0.21686752  0.12838862    -0.00600
C1715       C  0.02444319  0.21150770  0.12988109    -0.09200
C1716       C  0.05000021  0.24598036  0.12590571    -0.06600
C1717       C  0.03364862  0.28537096  0.12025839    -0.00600
C1718       C  0.98999547  0.29028254  0.11704755    -0.09100
C1719       C  0.97001051  0.33160945  0.11046754     0.61300
H1720       H  0.93104948  0.25904991  0.11979773     0.12000
H1721       H  0.08327044  0.24241889  0.12786727     0.12000
C1722       C  0.04381279  0.17000672  0.13718180     0.61500
F1723       F  0.92707528  0.32955416  0.11121249    -0.23700
F1724       F  0.98180038  0.34649545  0.07488621    -0.21000
F1725       F  0.98215737  0.35839223  0.13883970    -0.20700
F1726       F  0.03543789  0.14435931  0.10685844    -0.20700
F1727       F  0.02784418  0.15347146  0.17071615    -0.21000
F1728       F  0.08646907  0.17226122  0.14083427    -0.23700
loop_ 
_geom_bond_atom_site_label_1 
_geom_bond_atom_site_label_2 
_geom_bond_distance 
_geom_bond_site_symmetry_2 
_ccdc_geom_bond_type 
Zr1           O2   2.443       .  S
Zr1           O3   2.442       .  S
Zr1           O4   2.485   1_565  S
Zr1           O7   2.448   1_655  S
Zr1           O9   2.403   1_565  S
Zr1          O10   2.399       .  S
Zr1          O11   2.414   1_565  S
Zr1          O12   2.405   1_655  S
O2           H58   0.990       .  S
O2           H66   0.990   1_665  S
O3           C23   1.271       .  A
O4           C25   1.293       .  A
O5          Zr15   2.422       .  S
O5           C24   1.278       .  A
O6          Zr14   2.431   1_554  S
O6           C25   1.284       .  A
O7           C24   1.292       .  A
O8          Zr16   2.418   1_554  S
O8           C23   1.273       .  A
O9          Zr14   2.405   1_554  S
O9          Zr16   2.372   1_544  S
O10         Zr15   2.396   1_655  S
O10         Zr16   2.370   1_554  S
O10          H45   0.966       .  S
O11         Zr14   2.417   1_554  S
O11         Zr31   2.361   1_655  S
O11          H48   0.964       .  S
O12         Zr15   2.401       .  S
O12         Zr31   2.385   1_565  S
Zr13         O38   2.439       .  S
Zr13         O32   2.489       .  S
Zr13         O40   2.478   1_545  S
Zr13         O28   2.484   1_455  S
Zr13         O19   2.416   1_545  S
Zr13         O20   2.427   1_455  S
Zr13         O21   2.388       .  S
Zr13         O22   2.393       .  S
Zr14         O33   2.436       .  S
Zr14         O26   2.435       .  S
Zr14         O27   2.463       .  S
Zr14         O20   2.403       .  S
Zr14         O21   2.401   1_655  S
Zr15         O17   2.435       .  S
Zr15         O39   2.437   1_554  S
Zr15         O41   2.415   1_554  S
Zr15         O19   2.397   1_554  S
Zr15         O22   2.390   1_564  S
Zr16         O42   2.435       .  S
Zr16         O43   2.430       .  S
Zr16         O18   2.438       .  S
Zr16         O19   2.407   1_655  S
Zr16         O20   2.382   1_565  S
O17          H54   0.990       .  S
O18          H49   0.991       .  S
O18          H63   0.990       .  S
O20          H46   0.964       .  S
O21         Zr31   2.389   1_556  S
O22         Zr31   2.373   1_556  S
O22          H47   0.966       .  S
C23         C763   1.470       .  S
C24         C253   1.474       .  S
C25          C73   1.472       .  S
O26          H62   0.990   1_556  S
O27          C29   1.287       .  A
O28          C29   1.297       .  A
C29        C1115   1.496       .  S
O30         Zr31   2.437       .  S
O30          H59   0.990       .  S
Zr31         O34   2.436       .  S
Zr31         O35   2.440       .  S
Zr31         O36   2.373   1_554  S
O32          C37   1.288       .  A
O33          H50   0.990       .  S
O33          H65   0.990   1_556  S
O34          H51   0.990   1_554  S
O35          H55   0.990       .  S
O35          H64   0.990       .  S
O36          C37   1.275       .  A
C37         C579   1.484       .  S
O38          H57   0.990       .  S
O38          H61   0.990       .  S
O39          H53   0.990       .  S
O39          H60   0.990   1_556  S
O40          C44   1.291       .  A
O41          C44   1.276       .  A
O42          H52   0.990       .  S
O43          H56   0.990       .  S
C44        C1101   1.470       .  S
C67        C1217   1.474       .  S
C67          N68   1.371       .  A
C67          N72   1.361       .  A
N68          C69   1.369       .  A
C69         C347   1.470       .  S
C69          N70   1.354       .  A
N70          C71   1.349       .  A
C71        C1717   1.491       .  S
C71          N72   1.354       .  A
C73          N74   1.359       .  A
C73          N78   1.369       .  A
N74          C75   1.351       .  A
C75        C1714   1.481       .  S
C75          N76   1.350       .  A
N76          C77   1.356       .  A
C77         C134   1.473       .  S
C77          N78   1.371       .  A
C79         C127   1.483       .  S
C79          N80   1.375       .  A
C79          N84   1.363       .  A
N80          C81   1.371       .  A
C81         C955   1.471       .  S
C81          N82   1.352       .  A
N82          C83   1.343       .  A
C83        C1698   1.503       .  S
C83          N84   1.351       .  A
C85        C1056   1.460       .  S
C85          N86   1.373       .  A
C85          N90   1.360       .  A
N86          C87   1.367       .  A
C87         C425   1.473       .  S
C87          N88   1.353       .  A
N88          C89   1.342       .  A
C89        C1701   1.470       .  S
C89          N90   1.349       .  A
Zr91         O92   2.441       .  S
Zr91         O93   2.466       .  S
Zr91         O94   2.471       .  S
Zr91         O97   2.452       .  S
Zr91         O99   2.381       .  S
Zr91        O100   2.385       .  S
Zr91        O101   2.423       .  S
Zr91        O102   2.415       .  S
O92         H148   0.990       .  S
O92         H156   0.990       .  S
O93         C113   1.287       .  A
O94         C115   1.293       .  A
O95        Zr105   2.442       .  S
O95         C114   1.282       .  A
O96        Zr104   2.432       .  S
O96         C115   1.280       .  A
O97         C114   1.289       .  A
O98        Zr106   2.427       .  S
O98         C113   1.283       .  A
O99        Zr104   2.409       .  S
O99        Zr106   2.382       .  S
O100       Zr105   2.389       .  S
O100       Zr106   2.370       .  S
O100        H135   0.965       .  S
O101       Zr104   2.402       .  S
O101       Zr121   2.397       .  S
O101        H138   0.963       .  S
O102       Zr105   2.389       .  S
O102       Zr121   2.387       .  S
Zr103       O128   2.442       .  S
Zr103       O122   2.477       .  S
Zr103       O130   2.455       .  S
Zr103       O118   2.464       .  S
Zr103       O109   2.415       .  S
Zr103       O110   2.425       .  S
Zr103       O111   2.376       .  S
Zr103       O112   2.390       .  S
Zr104       O123   2.440       .  S
Zr104       O116   2.433       .  S
Zr104       O117   2.436       .  S
Zr104       O110   2.397       .  S
Zr104       O111   2.396       .  S
Zr105       O107   2.436       .  S
Zr105       O129   2.438       .  S
Zr105       O131   2.426       .  S
Zr105       O109   2.400       .  S
Zr105       O112   2.405       .  S
Zr106       O132   2.436       .  S
Zr106       O133   2.434       .  S
Zr106       O108   2.438       .  S
Zr106       O109   2.397       .  S
Zr106       O110   2.396       .  S
O107        H144   0.990       .  S
O108        H139   0.990       .  S
O108        H153   0.990       .  S
O110        H136   0.964       .  S
O111       Zr121   2.380       .  S
O112       Zr121   2.376       .  S
O112        H137   0.966       .  S
C113       C1021   1.480       .  S
C114        C739   1.465       .  S
C115        C485   1.478       .  S
O116        H152   0.989       .  S
O117        C119   1.282       .  A
O118        C119   1.290       .  A
C119        C727   1.468       .  S
O120       Zr121   2.436       .  S
O120        H149   0.990       .  S
Zr121       O124   2.432       .  S
Zr121       O125   2.443       .  S
Zr121       O126   2.411       .  S
O122        C127   1.289       .  A
O123        H140   0.990       .  S
O123        H155   0.990       .  S
O124        H141   0.989       .  S
O125        H145   0.990       .  S
O125        H154   0.990       .  S
O126        C127   1.281       .  A
O128        H147   0.990       .  S
O128        H151   0.991       .  S
O129        H143   0.990       .  S
O129        H150   0.990       .  S
O130        C134   1.289       .  A
O131        C134   1.281       .  A
O132        H142   0.990       .  S
O133        H146   0.990       .  S
C157       C1146   1.470       .  S
C157        N158   1.353       .  A
C157        N162   1.374       .  A
N158        C159   1.343       .  A
C159       C1685   1.454       .  S
C159        N160   1.342       .  A
N160        C161   1.351       .  A
C161        C197   1.463       .  S
C161        N162   1.371       .  A
C163        C541   1.478       .  S
C163        N164   1.358       .  A
C163        N168   1.373       .  A
N164        C165   1.346       .  A
C165       C1682   1.472       .  S
C165        N166   1.337       .  A
N166        C167   1.350       .  A
C167        C798   1.464       .  S
C167        N168   1.375       .  A
Zr169       O170   2.442   1_655  S
Zr169       O171   2.467       .  S
Zr169       O172   2.473       .  S
Zr169       O175   2.471   1_655  S
Zr169       O177   2.389       .  S
Zr169       O178   2.393       .  S
Zr169       O179   2.419   1_655  S
Zr169       O180   2.399   1_655  S
O170        H226   0.990   1_455  S
O170        H234   0.989       .  S
O171        C191   1.286       .  A
O172        C193   1.293       .  A
O173       Zr183   2.418       .  S
O173        C192   1.278       .  A
O174       Zr182   2.421       .  S
O174        C193   1.279       .  A
O175        C192   1.292       .  A
O176       Zr184   2.423       .  S
O176        C191   1.283       .  A
O177       Zr182   2.410       .  S
O177       Zr184   2.373       .  S
O178       Zr183   2.388   1_655  S
O178       Zr184   2.373       .  S
O178        H213   0.965       .  S
O179       Zr182   2.408   1_455  S
O179       Zr199   2.398       .  S
O179        H216   0.965       .  S
O180       Zr183   2.392       .  S
O180       Zr199   2.376       .  S
Zr181       O206   2.441       .  S
Zr181       O200   2.476       .  S
Zr181       O208   2.442       .  S
Zr181       O196   2.448   1_455  S
Zr181       O187   2.417       .  S
Zr181       O188   2.429   1_455  S
Zr181       O189   2.379       .  S
Zr181       O190   2.381       .  S
Zr182       O201   2.435       .  S
Zr182       O194   2.435       .  S
Zr182       O195   2.449       .  S
Zr182       O188   2.394       .  S
Zr182       O189   2.393   1_655  S
Zr183       O185   2.436       .  S
Zr183       O207   2.438       .  S
Zr183       O209   2.422       .  S
Zr183       O187   2.392       .  S
Zr183       O190   2.387       .  S
Zr184       O210   2.437       .  S
Zr184       O211   2.436       .  S
Zr184       O186   2.437       .  S
Zr184       O187   2.405   1_655  S
Zr184       O188   2.384       .  S
O185        H222   0.990       .  S
O186        H217   0.990       .  S
O186        H231   0.990       .  S
O188        H214   0.963       .  S
O189       Zr199   2.380       .  S
O190       Zr199   2.385       .  S
O190        H215   0.966       .  S
C191        C731   1.475       .  S
C192        C477   1.462       .  S
C193       C1015   1.474       .  S
O194        H230   0.990       .  S
O195        C197   1.285       .  A
O196        C197   1.286       .  A
O198       Zr199   2.441       .  S
O198        H227   0.990       .  S
Zr199       O202   2.437       .  S
Zr199       O203   2.441       .  S
Zr199       O204   2.404       .  S
O200        C205   1.286       .  A
O201        H218   0.990       .  S
O201        H233   0.990       .  S
O202        H219   0.990       .  S
O203        H223   0.990       .  S
O203        H232   0.990       .  S
O204        C205   1.276       .  A
C205        C589   1.466       .  S
O206        H225   0.991   1_455  S
O206        H229   0.990       .  S
O207        H221   0.990       .  S
O207        H228   0.990       .  S
O208        C212   1.287       .  A
O209        C212   1.280       .  A
O210        H220   0.990       .  S
O211        H224   0.990       .  S
C212        C755   1.468       .  S
C235        C283   1.467       .  S
C235        N236   1.356       .  A
C235        N240   1.369       .  A
N236        C237   1.349       .  A
C237       C1669   1.471       .  S
C237        N238   1.345       .  A
N238        C239   1.350       .  A
C239        C704   1.459       .  S
C239        N240   1.367       .  A
C241        C881   1.483       .  S
C241        N242   1.376       .  A
C241        N246   1.354       .  A
N242        C243   1.375       .  A
C243        C818   1.475       .  S
C243        N244   1.354       .  A
N244        C245   1.349       .  A
C245       C1666   1.477       .  S
C245        N246   1.348       .  A
C247        C368   1.473       .  S
C247        N248   1.374       .  A
C247        N252   1.353       .  A
N248        C249   1.370       .  A
C249        C962   1.470       .  S
C249        N250   1.347       .  A
N250        C251   1.345       .  A
C251       C1650   1.464       .  S
C251        N252   1.348       .  A
C253        N254   1.346       .  A
C253        N258   1.377       .  A
N254        C255   1.339       .  A
C255       C1653   1.457       .  S
C255        N256   1.345       .  A
N256        C257   1.354       .  A
C257        C287   1.474       .  S
C257        N258   1.377       .  A
Zr259       O260   2.442       .  S
Zr259       O261   2.446       .  S
Zr259       O262   2.435       .  S
Zr259       O265   2.438       .  S
Zr259       O267   2.380       .  S
Zr259       O268   2.382       .  S
Zr259       O269   2.412       .  S
Zr259       O270   2.400       .  S
O260        H316   0.990       .  S
O260        H324   0.991       .  S
O261        C281   1.282       .  A
O262        C283   1.285       .  A
O263       Zr273   2.452       .  S
O263        C282   1.287       .  A
O264       Zr272   2.431       .  S
O264        C283   1.282       .  A
O265        C282   1.285       .  A
O266       Zr274   2.394       .  S
O266        C281   1.277       .  A
O267       Zr272   2.406       .  S
O267       Zr274   2.372       .  S
O268       Zr273   2.397       .  S
O268       Zr274   2.372       .  S
O268        H303   0.965       .  S
O269       Zr272   2.410       .  S
O269       Zr289   2.403       .  S
O269        H306   0.966       .  S
O270       Zr273   2.388       .  S
O270       Zr289   2.379       .  S
Zr271       O296   2.438       .  S
Zr271       O290   2.450       .  S
Zr271       O298   2.447       .  S
Zr271       O286   2.473       .  S
Zr271       O277   2.407       .  S
Zr271       O278   2.416       .  S
Zr271       O279   2.379       .  S
Zr271       O280   2.397       .  S
Zr272       O291   2.438       .  S
Zr272       O284   2.436       .  S
Zr272       O285   2.447       .  S
Zr272       O278   2.402       .  S
Zr272       O279   2.395       .  S
Zr273       O275   2.436       .  S
Zr273       O297   2.439       .  S
Zr273       O299   2.435       .  S
Zr273       O277   2.401       .  S
Zr273       O280   2.399       .  S
Zr274       O300   2.438       .  S
Zr274       O301   2.427       .  S
Zr274       O276   2.436       .  S
Zr274       O277   2.382       .  S
Zr274       O278   2.381       .  S
O275        H312   0.990       .  S
O276        H307   0.990       .  S
O276        H321   0.990       .  S
O278        H304   0.964       .  S
O279       Zr289   2.382       .  S
O280       Zr289   2.382       .  S
O280        H305   0.966       .  S
C281        C987   1.460       .  S
C282        C843   1.464       .  S
O284        H320   0.990       .  S
O285        C287   1.284       .  A
O286        C287   1.292       .  A
O288       Zr289   2.438       .  S
O288        H317   0.990       .  S
Zr289       O292   2.434       .  S
Zr289       O293   2.438       .  S
Zr289       O294   2.420       .  S
O290        C295   1.281       .  A
O291        H308   0.990       .  S
O291        H323   0.990       .  S
O292        H309   0.990       .  S
O293        H313   0.990       .  S
O293        H322   0.990       .  S
O294        C295   1.277       .  A
C295       C1271   1.457       .  S
O296        H315   0.991       .  S
O296        H319   0.990       .  S
O297        H311   0.990       .  S
O297        H318   0.990       .  S
O298        C302   1.289       .  A
O299        C302   1.284       .  A
O300        H310   0.990       .  S
O301        H314   0.988       .  S
C302        C751   1.472       .  S
Zr325       O326   2.436       .  S
Zr325       O327   2.466       .  S
Zr325       O328   2.501       .  S
Zr325       O331   2.511       .  S
Zr325       O333   2.393       .  S
Zr325       O334   2.409       .  S
Zr325       O335   2.420       .  S
Zr325       O336   2.398       .  S
O326        H382   0.990       .  S
O326        H390   0.989       .  S
O327        C347   1.282       .  A
O328        C349   1.300       .  A
O329       Zr339   2.406       .  S
O329        C348   1.275       .  A
O330       Zr338   2.412       .  S
O330        C349   1.278       .  A
O331        C348   1.298       .  A
O332       Zr340   2.420       .  S
O332        C347   1.272       .  A
O333       Zr338   2.386       .  S
O333       Zr340   2.380       .  S
O334       Zr339   2.394       .  S
O334       Zr340   2.372       .  S
O334        H369   0.965       .  S
O335       Zr338   2.406       .  S
O335       Zr355   2.392       .  S
O335        H372   0.965       .  S
O336       Zr339   2.386       .  S
O336       Zr355   2.370       .  S
Zr337       O362   2.439       .  S
Zr337       O356   2.490       .  S
Zr337       O364   2.473       .  S
Zr337       O352   2.495       .  S
Zr337       O343   2.425       .  S
Zr337       O344   2.424       .  S
Zr337       O345   2.384       .  S
Zr337       O346   2.390       .  S
Zr338       O357   2.435       .  S
Zr338       O350   2.434       .  S
Zr338       O351   2.422       .  S
Zr338       O344   2.388       .  S
Zr338       O345   2.393       .  S
Zr339       O341   2.437       .  S
Zr339       O363   2.439       .  S
Zr339       O365   2.409       .  S
Zr339       O343   2.391       .  S
Zr339       O346   2.388       .  S
Zr340       O366   2.439       .  S
Zr340       O367   2.437       .  S
Zr340       O342   2.443       .  S
Zr340       O343   2.398       .  S
Zr340       O344   2.365       .  S
O341        H378   0.990       .  S
O342        H373   0.989       .  S
O342        H387   0.990       .  S
O344        H370   0.962       .  S
O345       Zr355   2.389       .  S
O346       Zr355   2.382       .  S
O346        H371   0.966       .  S
C348        C475   1.476       .  S
C349        C847   1.481       .  S
O350        H386   0.990       .  S
O351        C353   1.282       .  A
O352        C353   1.296       .  A
C353        C571   1.473       .  S
O354       Zr355   2.435       .  S
O354        H383   0.990       .  S
Zr355       O358   2.435       .  S
Zr355       O359   2.442       .  S
Zr355       O360   2.387       .  S
O356        C361   1.289       .  A
O357        H374   0.990       .  S
O357        H389   0.990       .  S
O358        H375   0.990       .  S
O359        H379   0.990       .  S
O359        H388   0.990       .  S
O360        C361   1.271       .  A
C361        C491   1.467       .  S
O362        H381   0.990       .  S
O362        H385   0.989       .  S
O363        H377   0.990       .  S
O363        H384   0.990       .  S
O364        C368   1.294       .  A
O365        C368   1.278       .  A
O366        H376   0.988       .  S
O367        H380   0.990       .  S
C391       C1147   1.462       .  S
C391        N392   1.363       .  A
C391        N396   1.360       .  A
N392        C393   1.362       .  A
C393        C427   1.467       .  S
C393        N394   1.360       .  A
N394        C395   1.356       .  A
C395       C1634   1.507       .  S
C395        N396   1.357       .  A
C397        C529   1.479       .  S
C397        N398   1.359       .  A
C397        N402   1.370       .  A
N398        C399   1.354       .  A
C399       C1637   1.503       .  S
C399        N400   1.358       .  A
N400        C401   1.361       .  A
C401       C1303   1.479       .  S
C401        N402   1.371       .  A
Zr403       O404   2.440       .  S
Zr403       O405   2.475       .  S
Zr403       O406   2.483   1_545  S
Zr403       O409   2.475       .  S
Zr403       O411   2.386       .  S
Zr403       O412   2.396       .  S
Zr403       O413   2.432   1_545  S
Zr403       O414   2.412       .  S
O404        H460   0.990       .  S
O404        H468   0.989   1_545  S
O405        C425   1.286       .  A
O406        C427   1.292       .  A
O407       Zr417   2.430       .  S
O407        C426   1.281       .  A
O408       Zr416   2.419       .  S
O408        C427   1.279       .  A
O409        C426   1.295       .  A
O410       Zr418   2.377       .  S
O410        C425   1.275       .  A
O411       Zr416   2.399   1_545  S
O411       Zr418   2.382       .  S
O412       Zr417   2.408       .  S
O412       Zr418   2.379       .  S
O412        H447   0.966       .  S
O413       Zr416   2.411       .  S
O413       Zr433   2.388       .  S
O413        H450   0.963       .  S
O414       Zr417   2.392       .  S
O414       Zr433   2.390   1_545  S
Zr415       O440   2.435   1_565  S
Zr415       O434   2.427       .  S
Zr415       O442   2.438   1_565  S
Zr415       O430   2.435       .  S
Zr415       O421   2.399   1_565  S
Zr415       O422   2.408   1_565  S
Zr415       O423   2.377       .  S
Zr415       O424   2.399   1_565  S
Zr416       O435   2.436       .  S
Zr416       O428   2.436       .  S
Zr416       O429   2.443       .  S
Zr416       O422   2.404   1_565  S
Zr416       O423   2.384       .  S
Zr417       O419   2.437       .  S
Zr417       O441   2.438       .  S
Zr417       O443   2.424       .  S
Zr417       O421   2.389       .  S
Zr417       O424   2.401       .  S
Zr418       O444   2.436       .  S
Zr418       O445   2.436       .  S
Zr418       O420   2.439       .  S
Zr418       O421   2.373       .  S
Zr418       O422   2.384       .  S
O419        H456   0.990       .  S
O420        H451   0.991       .  S
O420        H465   0.990       .  S
O422        H448   0.965       .  S
O423       Zr433   2.376       .  S
O424       Zr433   2.373   1_545  S
O424        H449   0.966       .  S
C426       C1255   1.482       .  S
O428        H464   0.990       .  S
O429        C431   1.282       .  A
O430        C431   1.287       .  A
C431        C747   1.473       .  S
O432       Zr433   2.433       .  S
O432        H461   0.990       .  S
Zr433       O436   2.435       .  S
Zr433       O437   2.441       .  S
Zr433       O438   2.431       .  S
O434        C439   1.274       .  A
O435        H452   0.990       .  S
O435        H467   0.990       .  S
O436        H453   0.990       .  S
O437        H457   0.990       .  S
O437        H466   0.988       .  S
O438        C439   1.274       .  A
C439        C985   1.452       .  S
O440        H459   0.990       .  S
O440        H463   0.990   1_545  S
O441        H455   0.990       .  S
O441        H462   0.990       .  S
O442        C446   1.284       .  A
O443        C446   1.283       .  A
O444        H454   0.990       .  S
O445        H458   0.990       .  S
C446        C487   1.454       .  S
C469        C618   1.481       .  S
C469        N470   1.376       .  A
C469        N474   1.368       .  A
N470        C471   1.371       .  A
C471        C527   1.485       .  S
C471        N472   1.353       .  A
N472        C473   1.344       .  A
C473       C1618   1.495       .  S
C473        N474   1.358       .  A
C475        N476   1.362       .  A
C475        N480   1.367       .  A
N476        C477   1.361       .  A
C477        N478   1.353       .  A
N478        C479   1.352       .  A
C479       C1621   1.499       .  S
C479        N480   1.367       .  A
C481        C548   1.477       .  S
C481        N482   1.357       .  A
C481        N486   1.375       .  A
N482        C483   1.350       .  A
C483       C1605   1.473       .  S
C483        N484   1.346       .  A
N484        C485   1.352       .  A
C485        N486   1.375       .  A
C487        N488   1.353       .  A
C487        N492   1.370       .  A
N488        C489   1.344       .  A
C489       C1602   1.463       .  S
C489        N490   1.346       .  A
N490        C491   1.356       .  A
C491        N492   1.368       .  A
C493        C889   1.453       .  S
C493        N494   1.364       .  A
C493        N498   1.355       .  A
N494        C495   1.363       .  A
C495       C1159   1.448       .  S
C495        N496   1.349       .  A
N496        C497   1.345       .  A
C497       C1586   1.467       .  S
C497        N498   1.346       .  A
C499        C528   1.481       .  S
C499        N500   1.353       .  A
C499        N504   1.378       .  A
N500        C501   1.346       .  A
C501       C1589   1.469       .  S
C501        N502   1.347       .  A
N502        C503   1.350       .  A
C503       C1076   1.482       .  S
C503        N504   1.376       .  A
Zr505       O506   2.440       .  S
Zr505       O507   2.465       .  S
Zr505       O508   2.497       .  S
Zr505       O511   2.478       .  S
Zr505       O513   2.393       .  S
Zr505       O514   2.398       .  S
Zr505       O515   2.422       .  S
Zr505       O516   2.405       .  S
O506        H562   0.990       .  S
O506        H570   0.990       .  S
O507        C527   1.284       .  A
O508        C529   1.295       .  A
O509       Zr519   2.433       .  S
O509        C528   1.282       .  A
O510       Zr518   2.428       .  S
O510        C529   1.282       .  A
O511        C528   1.297       .  A
O512       Zr520   2.408       .  S
O512        C527   1.280       .  A
O513       Zr518   2.403       .  S
O513       Zr520   2.376       .  S
O514       Zr519   2.408       .  S
O514       Zr520   2.374       .  S
O514        H549   0.966       .  S
O515       Zr518   2.408       .  S
O515       Zr535   2.384       .  S
O515        H552   0.964       .  S
O516       Zr519   2.395       .  S
O516       Zr535   2.378       .  S
Zr517       O542   2.436       .  S
Zr517       O536   2.474       .  S
Zr517       O544   2.467       .  S
Zr517       O532   2.456       .  S
Zr517       O523   2.409       .  S
Zr517       O524   2.418       .  S
Zr517       O525   2.379       .  S
Zr517       O526   2.392       .  S
Zr518       O537   2.435       .  S
Zr518       O530   2.435       .  S
Zr518       O531   2.439       .  S
Zr518       O524   2.401       .  S
Zr518       O525   2.400       .  S
Zr519       O521   2.435       .  S
Zr519       O543   2.440       .  S
Zr519       O545   2.437       .  S
Zr519       O523   2.386       .  S
Zr519       O526   2.403       .  S
Zr520       O546   2.438       .  S
Zr520       O547   2.436       .  S
Zr520       O522   2.442       .  S
Zr520       O523   2.389       .  S
Zr520       O524   2.388       .  S
O521        H558   0.990       .  S
O522        H553   0.990       .  S
O522        H567   0.989       .  S
O524        H550   0.964       .  S
O525       Zr535   2.381       .  S
O526       Zr535   2.380       .  S
O526        H551   0.966       .  S
O530        H566   0.990       .  S
O531        C533   1.283       .  A
O532        C533   1.290       .  A
C533        C841   1.477       .  S
O534       Zr535   2.440       .  S
O534        H563   0.990       .  S
Zr535       O538   2.436       .  S
Zr535       O539   2.441       .  S
Zr535       O540   2.386       .  S
O536        C541   1.286       .  A
O537        H554   0.990       .  S
O537        H569   0.990       .  S
O538        H555   0.990       .  S
O539        H559   0.990       .  S
O539        H568   0.990       .  S
O540        C541   1.276       .  A
O542        H561   0.990       .  S
O542        H565   0.990       .  S
O543        H557   0.990       .  S
O543        H564   0.990       .  S
O544        C548   1.289       .  A
O545        C548   1.286       .  A
O546        H556   0.990       .  S
O547        H560   0.990       .  S
C571        N572   1.372       .  A
C571        N576   1.371       .  A
N572        C573   1.358       .  A
C573       C1570   1.494       .  S
C573        N574   1.341       .  A
N574        C575   1.352       .  A
C575        C697   1.474       .  S
C575        N576   1.366       .  A
C577        C623   1.479       .  S
C577        N578   1.377       .  A
C577        N582   1.370       .  A
N578        C579   1.371       .  A
C579        N580   1.355       .  A
N580        C581   1.341       .  A
C581       C1573   1.491       .  S
C581        N582   1.356       .  A
C583       C1213   1.490       .  S
C583        N584   1.361       .  A
C583        N588   1.379       .  A
N584        C585   1.354       .  A
C585       C1554   1.467       .  S
C585        N586   1.344       .  A
N586        C587   1.344       .  A
C587        C619   1.480       .  S
C587        N588   1.375       .  A
C589        N590   1.352       .  A
C589        N594   1.376       .  A
N590        C591   1.338       .  A
C591       C1557   1.452       .  S
C591        N592   1.336       .  A
N592        C593   1.350       .  A
C593       C1301   1.462       .  S
C593        N594   1.376       .  A
Zr595       O596   2.441       .  S
Zr595       O597   2.485       .  S
Zr595       O598   2.483       .  S
Zr595       O601   2.499       .  S
Zr595       O603   2.392       .  S
Zr595       O604   2.410       .  S
Zr595       O605   2.431       .  S
Zr595       O606   2.402       .  S
O596        H652   0.990       .  S
O596        H660   0.991       .  S
O597        C617   1.285       .  A
O598        C619   1.297       .  A
O599       Zr609   2.437       .  S
O599        C618   1.284       .  A
O600       Zr608   2.426       .  S
O600        C619   1.279       .  A
O601        C618   1.298       .  A
O602       Zr610   2.414       .  S
O602        C617   1.270       .  A
O603       Zr608   2.396       .  S
O603       Zr610   2.383       .  S
O604       Zr609   2.401       .  S
O604       Zr610   2.381       .  S
O604        H639   0.966       .  S
O605       Zr608   2.403       .  S
O605       Zr625   2.400       .  S
O605        H642   0.965       .  S
O606       Zr609   2.382       .  S
O606       Zr625   2.371       .  S
Zr607       O632   2.442       .  S
Zr607       O626   2.476       .  S
Zr607       O634   2.464       .  S
Zr607       O622   2.495       .  S
Zr607       O613   2.424       .  S
Zr607       O614   2.424       .  S
Zr607       O615   2.384       .  S
Zr607       O616   2.392       .  S
Zr608       O627   2.436       .  S
Zr608       O620   2.434       .  S
Zr608       O621   2.429       .  S
Zr608       O614   2.395       .  S
Zr608       O615   2.394       .  S
Zr609       O611   2.437       .  S
Zr609       O633   2.437       .  S
Zr609       O635   2.427       .  S
Zr609       O613   2.399       .  S
Zr609       O616   2.404       .  S
Zr610       O636   2.436       .  S
Zr610       O637   2.434       .  S
Zr610       O612   2.438       .  S
Zr610       O613   2.402       .  S
Zr610       O614   2.371       .  S
O611        H648   0.990       .  S
O612        H643   0.990       .  S
O612        H657   0.990       .  S
O614        H640   0.963       .  S
O615       Zr625   2.384       .  S
O616       Zr625   2.371       .  S
O616        H641   0.966       .  S
C617       C1001   1.480       .  S
O620        H656   0.990       .  S
O621        C623   1.281       .  A
O622        C623   1.296       .  A
O624       Zr625   2.438       .  S
O624        H653   0.990       .  S
Zr625       O628   2.438       .  S
Zr625       O629   2.440       .  S
Zr625       O630   2.404       .  S
O626        C631   1.288       .  A
O627        H644   0.990       .  S
O627        H659   0.990       .  S
O628        H645   0.990       .  S
O629        H649   0.990       .  S
O629        H658   0.990       .  S
O630        C631   1.279       .  A
C631       C1009   1.473       .  S
O632        H651   0.990       .  S
O632        H655   0.990       .  S
O633        H647   0.990       .  S
O633        H654   0.990       .  S
O634        C638   1.292       .  A
O635        C638   1.280       .  A
O636        H646   0.990       .  S
O637        H650   0.990       .  S
C638       C1257   1.478       .  S
Zr661       O662   2.441       .  S
Zr661       O663   2.454       .  S
Zr661       O664   2.473   1_565  S
Zr661       O667   2.458       .  S
Zr661       O669   2.392   1_565  S
Zr661       O670   2.396       .  S
Zr661       O671   2.423   1_565  S
Zr661       O672   2.399       .  S
O662        H718   0.990       .  S
O662        H726   0.990   1_565  S
O663        C683   1.281       .  A
O664        C685   1.290       .  A
O665       Zr675   2.419       .  S
O665        C684   1.279       .  A
O666       Zr674   2.431   1_556  S
O666        C685   1.281       .  A
O667        C684   1.292       .  A
O668       Zr676   2.394   1_556  S
O668        C683   1.279       .  A
O669       Zr674   2.400   1_556  S
O669       Zr676   2.375   1_546  S
O670       Zr675   2.401       .  S
O670       Zr676   2.375   1_556  S
O670        H705   0.966       .  S
O671       Zr674   2.405   1_556  S
O671       Zr691   2.378       .  S
O671        H708   0.964       .  S
O672       Zr675   2.389       .  S
O672       Zr691   2.374   1_565  S
Zr673       O698   2.439       .  S
Zr673       O692   2.461       .  S
Zr673       O700   2.449   1_545  S
Zr673       O688   2.451       .  S
Zr673       O679   2.407   1_545  S
Zr673       O680   2.420       .  S
Zr673       O681   2.384       .  S
Zr673       O682   2.388   1_545  S
Zr674       O693   2.437   1_554  S
Zr674       O686   2.434       .  S
Zr674       O687   2.443       .  S
Zr674       O680   2.403       .  S
Zr674       O681   2.403       .  S
Zr675       O677   2.437       .  S
Zr675       O699   2.436   1_556  S
Zr675       O701   2.426   1_556  S
Zr675       O679   2.391   1_556  S
Zr675       O682   2.390   1_556  S
Zr676       O702   2.436       .  S
Zr676       O703   2.435       .  S
Zr676       O678   2.438       .  S
Zr676       O679   2.388       .  S
Zr676       O680   2.391   1_565  S
O677        H714   0.990   1_556  S
O678        H709   0.991       .  S
O678        H723   0.990       .  S
O680        H706   0.965       .  S
O681       Zr691   2.378   1_554  S
O682       Zr691   2.375   1_564  S
O682        H707   0.966       .  S
C683        C769   1.472       .  S
C684       C1261   1.467       .  S
C685       C1007   1.468       .  S
O686        H722   0.990       .  S
O687        C689   1.283       .  A
O688        C689   1.290       .  A
C689        C743   1.479       .  S
O690       Zr691   2.435       .  S
O690        H719   0.991       .  S
Zr691       O694   2.435       .  S
Zr691       O695   2.440       .  S
Zr691       O696   2.385   1_556  S
O692        C697   1.284       .  A
O693        H710   0.990       .  S
O693        H725   0.990       .  S
O694        H711   0.990       .  S
O695        H715   0.990       .  S
O695        H724   0.990       .  S
O696        C697   1.277       .  A
O698        H717   0.991       .  S
O698        H721   0.990       .  S
O699        H713   0.990       .  S
O699        H720   0.990       .  S
O700        C704   1.287       .  A
O701        C704   1.281       .  A
O702        H712   0.990       .  S
O703        H716   0.990       .  S
C727        N728   1.355       .  A
C727        N732   1.376       .  A
N728        C729   1.347       .  A
C729       C1538   1.466       .  S
C729        N730   1.344       .  A
N730        C731   1.353       .  A
C731        N732   1.373       .  A
C733        C811   1.476       .  S
C733        N734   1.357       .  A
C733        N738   1.372       .  A
N734        C735   1.346       .  A
C735       C1541   1.462       .  S
C735        N736   1.344       .  A
N736        C737   1.354       .  A
C737       C1232   1.470       .  S
C737        N738   1.372       .  A
C739        N740   1.351       .  A
C739        N744   1.376       .  A
N740        C741   1.343       .  A
C741       C1522   1.452       .  S
C741        N742   1.343       .  A
N742        C743   1.352       .  A
C743        N744   1.375       .  A
C745        C797   1.482       .  S
C745        N746   1.378       .  A
C745        N750   1.360       .  A
N746        C747   1.374       .  A
C747        N748   1.348       .  A
N748        C749   1.339       .  A
C749       C1525   1.468       .  S
C749        N750   1.346       .  A
C751        N752   1.357       .  A
C751        N756   1.367       .  A
N752        C753   1.352       .  A
C753       C1506   1.479       .  S
C753        N754   1.350       .  A
N754        C755   1.353       .  A
C755        N756   1.367       .  A
C757        C799   1.479       .  S
C757        N758   1.353       .  A
C757        N762   1.376       .  A
N758        C759   1.348       .  A
C759       C1509   1.476       .  S
C759        N760   1.349       .  A
N760        C761   1.354       .  A
C761        C947   1.475       .  S
C761        N762   1.376       .  A
C763        N764   1.372       .  A
C763        N768   1.348       .  A
N764        C765   1.375       .  A
C765        C803   1.467       .  S
C765        N766   1.352       .  A
N766        C767   1.340       .  A
C767       C1490   1.447       .  S
C767        N768   1.339       .  A
C769        N770   1.354       .  A
C769        N774   1.375       .  A
N770        C771   1.340       .  A
C771       C1493   1.452       .  S
C771        N772   1.332       .  A
N772        C773   1.347       .  A
C773       C1151   1.463       .  S
C773        N774   1.375       .  A
Zr775       O776   2.441       .  S
Zr775       O777   2.462       .  S
Zr775       O778   2.485       .  S
Zr775       O781   2.450       .  S
Zr775       O783   2.381       .  S
Zr775       O784   2.394       .  S
Zr775       O785   2.423       .  S
Zr775       O786   2.411       .  S
O776        H832   0.990       .  S
O776        H840   0.990       .  S
O777        C797   1.283       .  A
O778        C799   1.293       .  A
O779       Zr789   2.421       .  S
O779        C798   1.278       .  A
O780       Zr788   2.437       .  S
O780        C799   1.280       .  A
O781        C798   1.291       .  A
O782       Zr790   2.415       .  S
O782        C797   1.282       .  A
O783       Zr788   2.398       .  S
O783       Zr790   2.377       .  S
O784       Zr789   2.411       .  S
O784       Zr790   2.372       .  S
O784        H819   0.966       .  S
O785       Zr788   2.393       .  S
O785       Zr805   2.397       .  S
O785        H822   0.964       .  S
O786       Zr789   2.399       .  S
O786       Zr805   2.388       .  S
Zr787       O812   2.441       .  S
Zr787       O806   2.462       .  S
Zr787       O814   2.477       .  S
Zr787       O802   2.449       .  S
Zr787       O793   2.402       .  S
Zr787       O794   2.428       .  S
Zr787       O795   2.387       .  S
Zr787       O796   2.385       .  S
Zr788       O807   2.436       .  S
Zr788       O800   2.434       .  S
Zr788       O801   2.420       .  S
Zr788       O794   2.407       .  S
Zr788       O795   2.405       .  S
Zr789       O791   2.435       .  S
Zr789       O813   2.433       .  S
Zr789       O815   2.442       .  S
Zr789       O793   2.381       .  S
Zr789       O796   2.392       .  S
Zr790       O816   2.438       .  S
Zr790       O817   2.432       .  S
Zr790       O792   2.434       .  S
Zr790       O793   2.383       .  S
Zr790       O794   2.389       .  S
O791        H828   0.990       .  S
O792        H823   0.990       .  S
O792        H837   0.990       .  S
O794        H820   0.964       .  S
O795       Zr805   2.380       .  S
O796       Zr805   2.380       .  S
O796        H821   0.966       .  S
O800        H836   0.990       .  S
O801        C803   1.278       .  A
O802        C803   1.290       .  A
O804       Zr805   2.440       .  S
O804        H833   0.990       .  S
Zr805       O808   2.438       .  S
Zr805       O809   2.441       .  S
Zr805       O810   2.412       .  S
O806        C811   1.285       .  A
O807        H824   0.990       .  S
O807        H839   0.990       .  S
O808        H825   0.990       .  S
O809        H829   0.990       .  S
O809        H838   0.990       .  S
O810        C811   1.281       .  A
O812        H831   0.990       .  S
O812        H835   0.990       .  S
O813        H827   0.990       .  S
O813        H834   0.990       .  S
O814        C818   1.293       .  A
O815        C818   1.283       .  A
O816        H826   0.990       .  S
O817        H830   0.990       .  S
C841        N842   1.374       .  A
C841        N846   1.357       .  A
N842        C843   1.371       .  A
C843        N844   1.349       .  A
N844        C845   1.345       .  A
C845       C1474   1.463       .  S
C845        N846   1.348       .  A
C847        N848   1.356       .  A
C847        N852   1.380       .  A
N848        C849   1.350       .  A
C849       C1477   1.473       .  S
C849        N850   1.346       .  A
N850        C851   1.352       .  A
C851        C875   1.481       .  S
C851        N852   1.373       .  A
Zr853       O854   2.440       .  S
Zr853       O855   2.498       .  S
Zr853       O856   2.474       .  S
Zr853       O859   2.472   1_554  S
Zr853       O861   2.384       .  S
Zr853       O862   2.392       .  S
Zr853       O863   2.436       .  S
Zr853       O864   2.412   1_554  S
O854        H910   0.990       .  S
O854        H918   0.990       .  S
O855        C875   1.292       .  A
O856        C877   1.291       .  A
O857       Zr867   2.433       .  S
O857        C876   1.282       .  A
O858       Zr866   2.438       .  S
O858        C877   1.283       .  A
O859        C876   1.295       .  A
O860       Zr868   2.404       .  S
O860        C875   1.276       .  A
O861       Zr866   2.401       .  S
O861       Zr868   2.387       .  S
O862       Zr867   2.398   1_554  S
O862       Zr868   2.382       .  S
O862        H897   0.966       .  S
O863       Zr866   2.402       .  S
O863       Zr883   2.378   1_554  S
O863        H900   0.963   1_554  S
O864       Zr867   2.388       .  S
O864       Zr883   2.383       .  S
Zr865       O890   2.440       .  S
Zr865       O884   2.441       .  S
Zr865       O892   2.454       .  S
Zr865       O880   2.461   1_556  S
Zr865       O871   2.407       .  S
Zr865       O872   2.410   1_556  S
Zr865       O873   2.380       .  S
Zr865       O874   2.393       .  S
Zr866       O885   2.439       .  S
Zr866       O878   2.436       .  S
Zr866       O879   2.448       .  S
Zr866       O872   2.399       .  S
Zr866       O873   2.394   1_554  S
Zr867       O869   2.437       .  S
Zr867       O891   2.434       .  S
Zr867       O893   2.433       .  S
Zr867       O871   2.395       .  S
Zr867       O874   2.397       .  S
Zr868       O894   2.435       .  S
Zr868       O895   2.436       .  S
Zr868       O870   2.436       .  S
Zr868       O871   2.380   1_554  S
Zr868       O872   2.394       .  S
O869        H906   0.990       .  S
O870        H901   0.990       .  S
O870        H915   0.990       .  S
O872        H898   0.965       .  S
O873       Zr883   2.382       .  S
O874       Zr883   2.370       .  S
O874        H899   0.965       .  S
C876        C997   1.482       .  S
C877       C1023   1.471       .  S
O878        H914   0.990       .  S
O879        C881   1.284       .  A
O880        C881   1.292       .  A
O882       Zr883   2.437       .  S
O882        H911   0.989       .  S
Zr883       O886   2.436       .  S
Zr883       O887   2.445       .  S
Zr883       O888   2.402       .  S
O884        C889   1.280       .  A
O885        H902   0.990       .  S
O885        H917   0.990       .  S
O886        H903   0.990       .  S
O887        H907   0.988       .  S
O887        H916   0.989       .  S
O888        C889   1.272       .  A
O890        H909   0.990       .  S
O890        H913   0.990       .  S
O891        H905   0.990       .  S
O891        H912   0.990       .  S
O892        C896   1.288       .  A
O893        C896   1.280       .  A
O894        H904   0.990       .  S
O895        H908   0.990       .  S
C896       C1275   1.461       .  S
Zr919       O920   2.442       .  S
Zr919       O921   2.448       .  S
Zr919       O922   2.445   1_455  S
Zr919       O925   2.452   1_565  S
Zr919       O927   2.388       .  S
Zr919       O928   2.387       .  S
Zr919       O929   2.414   1_465  S
Zr919       O930   2.399   1_565  S
O920        H976   0.990       .  S
O920        H984   0.991   1_565  S
O921        C941   1.282       .  A
O922        C943   1.287       .  A
O923       Zr933   2.453       .  S
O923        C942   1.286       .  A
O924       Zr932   2.413       .  S
O924        C943   1.277       .  A
O925        C942   1.288       .  A
O926       Zr934   2.411       .  S
O926        C941   1.282       .  A
O927       Zr932   2.406   1_455  S
O927       Zr934   2.375       .  S
O928       Zr933   2.390   1_565  S
O928       Zr934   2.377       .  S
O928        H963   0.965       .  S
O929       Zr932   2.406   1_545  S
O929       Zr949   2.389       .  S
O929        H966   0.965       .  S
O930       Zr933   2.385       .  S
O930       Zr949   2.382   1_455  S
Zr931       O956   2.439       .  S
Zr931       O950   2.475       .  S
Zr931       O958   2.450   1_655  S
Zr931       O946   2.489   1_545  S
Zr931       O937   2.415   1_655  S
Zr931       O938   2.427   1_545  S
Zr931       O939   2.370       .  S
Zr931       O940   2.399   1_655  S
Zr932       O951   2.437       .  S
Zr932       O944   2.437       .  S
Zr932       O945   2.433       .  S
Zr932       O938   2.395       .  S
Zr932       O939   2.391   1_565  S
Zr933       O935   2.437       .  S
Zr933       O957   2.440       .  S
Zr933       O959   2.428       .  S
Zr933       O937   2.404       .  S
Zr933       O940   2.401       .  S
Zr934       O960   2.428       .  S
Zr934       O961   2.435       .  S
Zr934       O936   2.437       .  S
Zr934       O937   2.389   1_565  S
Zr934       O938   2.385   1_455  S
O935        H972   0.990       .  S
O936        H967   0.990       .  S
O936        H981   0.990       .  S
O938        H964   0.965       .  S
O939       Zr949   2.370       .  S
O940       Zr949   2.377   1_455  S
O940        H965   0.966       .  S
C941        C995   1.466       .  S
C942       C1013   1.469       .  S
C943       C1117   1.457       .  S
O944        H980   0.990       .  S
O945        C947   1.279       .  A
O946        C947   1.293       .  A
O948       Zr949   2.436       .  S
O948        H977   0.990       .  S
Zr949       O952   2.434       .  S
Zr949       O953   2.440       .  S
Zr949       O954   2.402       .  S
O950        C955   1.287       .  A
O951        H968   0.990       .  S
O951        H983   0.990       .  S
O952        H969   0.990       .  S
O953        H973   0.990       .  S
O953        H982   0.990       .  S
O954        C955   1.277       .  A
O956        H975   0.991   1_545  S
O956        H979   0.990       .  S
O957        H971   0.990       .  S
O957        H978   0.990       .  S
O958        C962   1.291       .  A
O959        C962   1.281       .  A
O960        H970   0.990       .  S
O961        H974   0.990       .  S
C985        N986   1.370       .  A
C985        N990   1.349       .  A
N986        C987   1.368       .  A
C987        N988   1.353       .  A
N988        C989   1.340       .  A
C989       C1461   1.458       .  S
C989        N990   1.340       .  A
C991       C1302   1.462       .  S
C991        N992   1.352       .  A
C991        N996   1.374       .  A
N992        C993   1.341       .  A
C993       C1458   1.473       .  S
C993        N994   1.344       .  A
N994        C995   1.349       .  A
C995        N996   1.369       .  A
C997        N998   1.355       .  A
C997       N1002   1.375       .  A
N998        C999   1.349       .  A
C999       C1445   1.479       .  S
C999       N1000   1.351       .  A
N1000      C1001   1.356       .  A
C1001      N1002   1.373       .  A
C1003      C1055   1.472       .  S
C1003      N1004   1.351       .  A
C1003      N1008   1.371       .  A
N1004      C1005   1.342       .  A
C1005      C1442   1.479       .  S
C1005      N1006   1.349       .  A
N1006      C1007   1.361       .  A
C1007      N1008   1.374       .  A
C1009      N1010   1.352       .  A
C1009      N1014   1.374       .  A
N1010      C1011   1.343       .  A
C1011      C1426   1.466       .  S
C1011      N1012   1.346       .  A
N1012      C1013   1.355       .  A
C1013      N1014   1.377       .  A
C1015      N1016   1.355       .  A
C1015      N1020   1.376       .  A
N1016      C1017   1.348       .  A
C1017      C1429   1.478       .  S
C1017      N1018   1.348       .  A
N1018      C1019   1.354       .  A
C1019      C1069   1.474       .  S
C1019      N1020   1.371       .  A
C1021      N1022   1.364       .  A
C1021      N1026   1.359       .  A
N1022      C1023   1.366       .  A
C1023      N1024   1.364       .  A
N1024      C1025   1.357       .  A
C1025      C1413   1.512       .  S
C1025      N1026   1.359       .  A
C1027      C1211   1.478       .  S
C1027      N1028   1.358       .  A
C1027      N1032   1.365       .  A
N1028      C1029   1.349       .  A
C1029      C1410   1.500       .  S
C1029      N1030   1.357       .  A
N1030      C1031   1.368       .  A
C1031      C1061   1.470       .  S
C1031      N1032   1.370       .  A
Zr1033     O1034   2.437       .  S
Zr1033     O1035   2.456       .  S
Zr1033     O1036   2.482       .  S
Zr1033     O1039   2.458       .  S
Zr1033     O1041   2.384       .  S
Zr1033     O1042   2.400       .  S
Zr1033     O1043   2.412       .  S
Zr1033     O1044   2.414       .  S
O1034      H1090   0.990       .  S
O1034      H1098   0.990       .  S
O1035      C1055   1.283       .  A
O1036      C1057   1.296       .  A
O1037     Zr1047   2.433       .  S
O1037      C1056   1.276       .  A
O1038     Zr1046   2.440       .  S
O1038      C1057   1.282       .  A
O1039      C1056   1.288       .  A
O1040     Zr1048   2.404       .  S
O1040      C1055   1.281       .  A
O1041     Zr1046   2.406       .  S
O1041     Zr1048   2.383       .  S
O1042     Zr1047   2.396       .  S
O1042     Zr1048   2.357       .  S
O1042      H1077   0.966       .  S
O1043     Zr1046   2.401       .  S
O1043     Zr1063   2.393       .  S
O1043      H1080   0.965       .  S
O1044     Zr1047   2.400       .  S
O1044     Zr1063   2.375       .  S
Zr1045     O1070   2.439       .  S
Zr1045     O1064   2.498       .  S
Zr1045     O1072   2.463       .  S
Zr1045     O1060   2.484       .  S
Zr1045     O1051   2.419       .  S
Zr1045     O1052   2.434       .  S
Zr1045     O1053   2.380       .  S
Zr1045     O1054   2.391       .  S
Zr1046     O1065   2.436       .  S
Zr1046     O1058   2.435       .  S
Zr1046     O1059   2.434       .  S
Zr1046     O1052   2.396       .  S
Zr1046     O1053   2.400       .  S
Zr1047     O1049   2.434       .  S
Zr1047     O1071   2.438       .  S
Zr1047     O1073   2.437       .  S
Zr1047     O1051   2.390       .  S
Zr1047     O1054   2.395       .  S
Zr1048     O1074   2.436       .  S
Zr1048     O1075   2.435       .  S
Zr1048     O1050   2.436       .  S
Zr1048     O1051   2.391       .  S
Zr1048     O1052   2.365       .  S
O1049      H1086   0.990       .  S
O1050      H1081   0.990       .  S
O1050      H1095   0.990       .  S
O1052      H1078   0.963       .  S
O1053     Zr1063   2.384       .  S
O1054     Zr1063   2.384       .  S
O1054      H1079   0.966       .  S
C1057      C1111   1.488       .  S
O1058      H1094   0.990       .  S
O1059      C1061   1.282       .  A
O1060      C1061   1.293       .  A
O1062     Zr1063   2.437       .  S
O1062      H1091   0.989       .  S
Zr1063     O1066   2.437       .  S
Zr1063     O1067   2.441       .  S
Zr1063     O1068   2.395       .  S
O1064      C1069   1.291       .  A
O1065      H1082   0.990       .  S
O1065      H1097   0.990       .  S
O1066      H1083   0.990       .  S
O1067      H1087   0.990       .  S
O1067      H1096   0.989       .  S
O1068      C1069   1.272       .  A
O1070      H1089   0.991       .  S
O1070      H1093   0.990       .  S
O1071      H1085   0.990       .  S
O1071      H1092   0.990       .  S
O1072      C1076   1.293       .  A
O1073      C1076   1.282       .  A
O1074      H1084   0.990       .  S
O1075      H1088   0.990       .  S
C1099      C1322   1.464       .  S
C1099      N1100   1.364       .  A
C1099      N1104   1.355       .  A
N1100      C1101   1.365       .  A
C1101      N1102   1.357       .  A
N1102      C1103   1.356       .  A
C1103      C1394   1.497       .  S
C1103      N1104   1.355       .  A
C1105      C1212   1.467       .  S
C1105      N1106   1.367       .  A
C1105      N1110   1.356       .  A
N1106      C1107   1.366       .  A
C1107      C1166   1.463       .  S
C1107      N1108   1.354       .  A
N1108      C1109   1.352       .  A
C1109      C1397   1.482       .  S
C1109      N1110   1.353       .  A
C1111      N1112   1.349       .  A
C1111      N1116   1.382       .  A
N1112      C1113   1.345       .  A
C1113      C1381   1.480       .  S
C1113      N1114   1.348       .  A
N1114      C1115   1.357       .  A
C1115      N1116   1.382       .  A
C1117      N1118   1.354       .  A
C1117      N1122   1.369       .  A
N1118      C1119   1.345       .  A
C1119      C1378   1.455       .  S
C1119      N1120   1.342       .  A
N1120      C1121   1.351       .  A
C1121      C1145   1.455       .  S
C1121      N1122   1.365       .  A
Zr1123     O1124   2.441       .  S
Zr1123     O1125   2.459       .  S
Zr1123     O1126   2.470       .  S
Zr1123     O1129   2.445       .  S
Zr1123     O1131   2.382       .  S
Zr1123     O1132   2.386       .  S
Zr1123     O1133   2.419       .  S
Zr1123     O1134   2.416       .  S
O1124      H1180   0.990       .  S
O1124      H1188   0.991       .  S
O1125      C1145   1.285       .  A
O1126      C1147   1.290       .  A
O1127     Zr1137   2.425       .  S
O1127      C1146   1.281       .  A
O1128     Zr1136   2.420       .  S
O1128      C1147   1.279       .  A
O1129      C1146   1.290       .  A
O1130     Zr1138   2.398       .  S
O1130      C1145   1.274       .  A
O1131     Zr1136   2.397       .  S
O1131     Zr1138   2.384       .  S
O1132     Zr1137   2.392       .  S
O1132     Zr1138   2.372       .  S
O1132      H1167   0.966       .  S
O1133     Zr1136   2.403       .  S
O1133     Zr1153   2.375       .  S
O1133      H1170   0.964       .  S
O1134     Zr1137   2.401       .  S
O1134     Zr1153   2.397       .  S
Zr1135     O1160   2.439       .  S
Zr1135     O1154   2.423       .  S
Zr1135     O1162   2.460       .  S
Zr1135     O1150   2.430       .  S
Zr1135     O1141   2.398       .  S
Zr1135     O1142   2.407       .  S
Zr1135     O1143   2.382       .  S
Zr1135     O1144   2.394       .  S
Zr1136     O1155   2.437       .  S
Zr1136     O1148   2.435       .  S
Zr1136     O1149   2.427       .  S
Zr1136     O1142   2.400       .  S
Zr1136     O1143   2.392       .  S
Zr1137     O1139   2.434       .  S
Zr1137     O1161   2.438       .  S
Zr1137     O1163   2.426       .  S
Zr1137     O1141   2.394       .  S
Zr1137     O1144   2.394       .  S
Zr1138     O1164   2.436       .  S
Zr1138     O1165   2.434       .  S
Zr1138     O1140   2.438       .  S
Zr1138     O1141   2.379       .  S
Zr1138     O1142   2.386       .  S
O1139      H1176   0.990       .  S
O1140      H1171   0.990       .  S
O1140      H1185   0.989       .  S
O1142      H1168   0.965       .  S
O1143     Zr1153   2.377       .  S
O1144     Zr1153   2.368       .  S
O1144      H1169   0.966       .  S
O1148      H1184   0.990       .  S
O1149      C1151   1.279       .  A
O1150      C1151   1.288       .  A
O1152     Zr1153   2.436       .  S
O1152      H1181   0.990       .  S
Zr1153     O1156   2.436       .  S
Zr1153     O1157   2.438       .  S
Zr1153     O1158   2.416       .  S
O1154      C1159   1.277       .  A
O1155      H1172   0.990       .  S
O1155      H1187   0.990       .  S
O1156      H1173   0.990       .  S
O1157      H1177   0.990       .  S
O1157      H1186   0.989       .  S
O1158      C1159   1.276       .  A
O1160      H1179   0.990       .  S
O1160      H1183   0.990       .  S
O1161      H1175   0.990       .  S
O1161      H1182   0.990       .  S
O1162      C1166   1.288       .  A
O1163      C1166   1.276       .  A
O1164      H1174   0.990       .  S
O1165      H1178   0.990       .  S
Zr1189     O1190   2.431       .  S
Zr1189     O1191   2.476       .  S
Zr1189     O1192   2.496   1_655  S
Zr1189     O1195   2.473       .  S
Zr1189     O1197   2.387       .  S
Zr1189     O1198   2.391       .  S
Zr1189     O1199   2.418   1_655  S
Zr1189     O1200   2.410       .  S
O1190      H1246   0.990       .  S
O1190      H1254   0.989       .  S
O1191      C1211   1.288       .  A
O1192      C1213   1.298       .  A
O1193     Zr1203   2.423       .  S
O1193      C1212   1.280       .  A
O1194     Zr1202   2.438       .  S
O1194      C1213   1.284       .  A
O1195      C1212   1.292       .  A
O1196     Zr1204   2.394   1_556  S
O1196      C1211   1.277       .  A
O1197     Zr1202   2.408   1_655  S
O1197     Zr1204   2.382   1_556  S
O1198     Zr1203   2.392       .  S
O1198     Zr1204   2.366   1_556  S
O1198      H1233   0.965       .  S
O1199     Zr1202   2.405       .  S
O1199     Zr1219   2.377       .  S
O1199      H1236   0.964       .  S
O1200     Zr1203   2.394       .  S
O1200     Zr1219   2.381   1_655  S
Zr1201     O1226   2.442       .  S
Zr1201     O1220   2.470       .  S
Zr1201     O1228   2.440   1_455  S
Zr1201     O1216   2.469       .  S
Zr1201     O1207   2.409   1_455  S
Zr1201     O1208   2.418       .  S
Zr1201     O1209   2.382       .  S
Zr1201     O1210   2.390       .  S
Zr1202     O1221   2.436       .  S
Zr1202     O1214   2.434       .  S
Zr1202     O1215   2.447   1_556  S
Zr1202     O1208   2.398   1_556  S
Zr1202     O1209   2.399   1_556  S
Zr1203     O1205   2.435       .  S
Zr1203     O1227   2.440   1_556  S
Zr1203     O1229   2.432   1_556  S
Zr1203     O1207   2.394   1_556  S
Zr1203     O1210   2.400   1_656  S
Zr1204     O1230   2.434       .  S
Zr1204     O1231   2.433       .  S
Zr1204     O1206   2.438       .  S
Zr1204     O1207   2.388       .  S
Zr1204     O1208   2.376   1_655  S
O1205      H1242   0.990       .  S
O1206      H1237   0.990   1_554  S
O1206      H1251   0.990   1_554  S
O1208      H1234   0.963       .  S
O1209     Zr1219   2.387   1_554  S
O1210     Zr1219   2.378   1_554  S
O1210      H1235   0.966       .  S
O1214      H1250   0.990       .  S
O1215      C1217   1.287       .  A
O1216      C1217   1.289       .  A
O1218     Zr1219   2.440       .  S
O1218      H1247   0.990       .  S
Zr1219     O1222   2.437       .  S
Zr1219     O1223   2.439       .  S
Zr1219     O1224   2.387   1_556  S
O1220      C1225   1.286       .  A
O1221      H1238   0.990       .  S
O1221      H1253   0.990       .  S
O1222      H1239   0.990       .  S
O1223      H1243   0.990       .  S
O1223      H1252   0.990       .  S
O1224      C1225   1.277       .  A
C1225      C1267   1.473       .  S
O1226      H1245   0.990       .  S
O1226      H1249   0.991       .  S
O1227      H1241   0.990       .  S
O1227      H1248   0.990   1_554  S
O1228      C1232   1.287       .  A
O1229      C1232   1.281       .  A
O1230      H1240   0.990       .  S
O1231      H1244   0.990       .  S
C1255      N1256   1.376       .  A
C1255      N1260   1.354       .  A
N1256      C1257   1.375       .  A
C1257      N1258   1.348       .  A
N1258      C1259   1.346       .  A
C1259      C1362   1.474       .  S
C1259      N1260   1.348       .  A
C1261      N1262   1.354       .  A
C1261      N1266   1.370       .  A
N1262      C1263   1.348       .  A
C1263      C1365   1.449       .  S
C1263      N1264   1.342       .  A
N1264      C1265   1.347       .  A
C1265      C1315   1.453       .  S
C1265      N1266   1.367       .  A
C1267      N1268   1.357       .  A
C1267      N1272   1.373       .  A
N1268      C1269   1.342       .  A
C1269      C1346   1.457       .  S
C1269      N1270   1.337       .  A
N1270      C1271   1.349       .  A
C1271      N1272   1.373       .  A
C1273      C1307   1.473       .  S
C1273      N1274   1.369       .  A
C1273      N1278   1.355       .  A
N1274      C1275   1.369       .  A
C1275      N1276   1.352       .  A
N1276      C1277   1.348       .  A
C1277      C1349   1.463       .  S
C1277      N1278   1.348       .  A
Zr1279     O1280   2.443       .  S
Zr1279     O1281   2.456       .  S
Zr1279     O1282   2.477       .  S
Zr1279     O1285   2.452       .  S
Zr1279     O1287   2.387       .  S
Zr1279     O1288   2.386       .  S
Zr1279     O1289   2.424       .  S
Zr1279     O1290   2.420       .  S
O1280      H1336   0.990       .  S
O1280      H1344   0.990       .  S
O1281      C1301   1.284       .  A
O1282      C1303   1.291       .  A
O1283     Zr1293   2.408       .  S
O1283      C1302   1.277       .  A
O1284     Zr1292   2.445       .  S
O1284      C1303   1.283       .  A
O1285      C1302   1.291       .  A
O1286     Zr1294   2.408       .  S
O1286      C1301   1.279       .  A
O1287     Zr1292   2.398       .  S
O1287     Zr1294   2.386       .  S
O1288     Zr1293   2.396       .  S
O1288     Zr1294   2.370       .  S
O1288      H1323   0.966       .  S
O1289     Zr1292   2.402       .  S
O1289     Zr1309   2.387       .  S
O1289      H1326   0.964       .  S
O1290     Zr1293   2.407       .  S
O1290     Zr1309   2.398       .  S
Zr1291     O1316   2.439       .  S
Zr1291     O1310   2.427       .  S
Zr1291     O1318   2.465       .  S
Zr1291     O1306   2.432       .  S
Zr1291     O1297   2.390       .  S
Zr1291     O1298   2.412       .  S
Zr1291     O1299   2.393       .  S
Zr1291     O1300   2.404       .  S
Zr1292     O1311   2.438       .  S
Zr1292     O1304   2.433       .  S
Zr1292     O1305   2.438       .  S
Zr1292     O1298   2.402       .  S
Zr1292     O1299   2.386       .  S
Zr1293     O1295   2.435       .  S
Zr1293     O1317   2.437       .  S
Zr1293     O1319   2.422       .  S
Zr1293     O1297   2.388       .  S
Zr1293     O1300   2.395       .  S
Zr1294     O1320   2.436       .  S
Zr1294     O1321   2.434       .  S
Zr1294     O1296   2.434       .  S
Zr1294     O1297   2.373       .  S
Zr1294     O1298   2.397       .  S
O1295      H1332   0.990       .  S
O1296      H1327   0.990       .  S
O1296      H1341   0.988       .  S
O1298      H1324   0.966       .  S
O1299     Zr1309   2.371       .  S
O1300     Zr1309   2.380       .  S
O1300      H1325   0.966       .  S
O1304      H1340   0.990       .  S
O1305      C1307   1.284       .  A
O1306      C1307   1.287       .  A
O1308     Zr1309   2.438       .  S
O1308      H1337   0.991       .  S
Zr1309     O1312   2.439       .  S
Zr1309     O1313   2.437       .  S
Zr1309     O1314   2.432       .  S
O1310      C1315   1.275       .  A
O1311      H1328   0.990       .  S
O1311      H1343   0.990       .  S
O1312      H1329   0.989       .  S
O1313      H1333   0.990       .  S
O1313      H1342   0.989       .  S
O1314      C1315   1.274       .  A
O1316      H1335   0.990       .  S
O1316      H1339   0.991       .  S
O1317      H1331   0.990       .  S
O1317      H1338   0.990       .  S
O1318      C1322   1.288       .  A
O1319      C1322   1.278       .  A
O1320      H1330   0.990       .  S
O1321      H1334   0.990       .  S
C1345      C1346   1.401       .  A
C1345      C1350   1.402       .  A
C1345      H1352   1.084       .  S
C1346      C1347   1.412       .  A
C1347      C1348   1.398       .  A
C1347      C1354   1.521       .  S
C1348      C1349   1.403   1_554  A
C1348      H1353   1.083   1_554  S
C1349      C1350   1.412   1_556  A
C1350      C1351   1.515       .  S
C1351      F1355   1.385       .  S
C1351      F1356   1.380   1_554  S
C1351      F1357   1.383       .  S
C1354      F1358   1.382       .  S
C1354      F1359   1.384       .  S
C1354      F1360   1.384       .  S
C1361      C1362   1.409       .  A
C1361      C1366   1.398   1_545  A
C1361      H1368   1.083       .  S
C1362      C1363   1.421   1_545  A
C1363      C1364   1.397       .  A
C1363      C1370   1.517       .  S
C1364      C1365   1.394       .  A
C1364      H1369   1.084       .  S
C1365      C1366   1.408       .  A
C1366      C1367   1.521       .  S
C1367      F1371   1.385   1_565  S
C1367      F1372   1.384       .  S
C1367      F1373   1.382       .  S
C1370      F1374   1.384   1_565  S
C1370      F1375   1.383       .  S
C1370      F1376   1.385       .  S
C1377      C1378   1.396       .  A
C1377      C1382   1.400   1_565  A
C1377      H1384   1.084       .  S
C1378      C1379   1.408       .  A
C1379      C1380   1.399   1_565  A
C1379      C1386   1.521       .  S
C1380      C1381   1.410       .  A
C1380      H1385   1.082       .  S
C1381      C1382   1.423       .  A
C1382      C1383   1.518       .  S
C1383      F1387   1.385   1_545  S
C1383      F1388   1.382   1_545  S
C1383      F1389   1.384       .  S
C1386      F1390   1.381       .  S
C1386      F1391   1.384   1_565  S
C1386      F1392   1.384   1_565  S
C1393      C1394   1.411       .  A
C1393      C1398   1.406       .  A
C1393      H1400   1.082       .  S
C1394      C1395   1.424   1_455  A
C1395      C1396   1.406       .  A
C1395      C1402   1.519       .  S
C1396      C1397   1.403       .  A
C1396      H1401   1.083       .  S
C1397      C1398   1.416   1_655  A
C1398      C1399   1.521       .  S
C1399      F1403   1.383       .  S
C1399      F1404   1.384       .  S
C1399      F1405   1.381       .  S
C1402      F1406   1.384       .  S
C1402      F1407   1.382       .  S
C1402      F1408   1.384       .  S
C1409      C1410   1.406       .  A
C1409      C1414   1.421       .  A
C1409      H1416   1.083       .  S
C1410      C1411   1.421       .  A
C1411      C1412   1.404   1_556  A
C1411      C1418   1.520       .  S
C1412      C1413   1.408       .  A
C1412      H1417   1.082       .  S
C1413      C1414   1.429   1_554  A
C1414      C1415   1.518       .  S
C1415      F1419   1.385       .  S
C1415      F1420   1.376       .  S
C1415      F1421   1.383       .  S
C1418      F1422   1.379       .  S
C1418      F1423   1.384       .  S
C1418      F1424   1.385   1_556  S
C1425      C1426   1.402       .  A
C1425      C1430   1.401       .  A
C1425      H1432   1.084       .  S
C1426      C1427   1.408   1_455  A
C1427      C1428   1.403       .  A
C1427      C1434   1.518       .  S
C1428      C1429   1.409       .  A
C1428      H1433   1.082       .  S
C1429      C1430   1.420   1_655  A
C1430      C1431   1.522       .  S
C1431      F1435   1.384       .  S
C1431      F1436   1.384       .  S
C1431      F1437   1.381       .  S
C1434      F1438   1.383       .  S
C1434      F1439   1.380       .  S
C1434      F1440   1.380       .  S
C1441      C1442   1.405       .  A
C1441      C1446   1.401       .  A
C1441      H1448   1.083       .  S
C1442      C1443   1.413       .  A
C1443      C1444   1.406       .  A
C1443      C1450   1.515       .  S
C1444      C1445   1.405       .  A
C1444      H1449   1.081       .  S
C1445      C1446   1.418       .  A
C1446      C1447   1.521       .  S
C1447      F1451   1.383       .  S
C1447      F1452   1.383       .  S
C1447      F1453   1.384       .  S
C1450      F1454   1.378       .  S
C1450      F1455   1.383       .  S
C1450      F1456   1.383       .  S
C1457      C1458   1.406       .  A
C1457      C1462   1.392       .  A
C1457      H1464   1.082       .  S
C1458      C1459   1.421       .  A
C1459      C1460   1.400       .  A
C1459      C1466   1.521       .  S
C1460      C1461   1.399       .  A
C1460      H1465   1.082       .  S
C1461      C1462   1.411       .  A
C1462      C1463   1.520       .  S
C1463      F1467   1.382       .  S
C1463      F1468   1.379       .  S
C1463      F1469   1.383       .  S
C1466      F1470   1.379       .  S
C1466      F1471   1.383       .  S
C1466      F1472   1.385       .  S
C1473      C1474   1.400       .  A
C1473      C1478   1.398       .  A
C1473      H1480   1.084       .  S
C1474      C1475   1.409       .  A
C1475      C1476   1.404       .  A
C1475      C1482   1.517       .  S
C1476      C1477   1.408       .  A
C1476      H1481   1.083       .  S
C1477      C1478   1.418       .  A
C1478      C1479   1.518       .  S
C1479      F1483   1.385       .  S
C1479      F1484   1.380       .  S
C1479      F1485   1.383       .  S
C1482      F1486   1.380       .  S
C1482      F1487   1.383       .  S
C1482      F1488   1.385       .  S
C1489      C1490   1.399   1_556  A
C1489      C1494   1.396       .  A
C1489      H1496   1.084       .  S
C1490      C1491   1.416       .  A
C1491      C1492   1.393       .  A
C1491      C1498   1.524       .  S
C1492      C1493   1.398   1_554  A
C1492      H1497   1.084       .  S
C1493      C1494   1.416       .  A
C1494      C1495   1.522       .  S
C1495      F1499   1.384       .  S
C1495      F1500   1.384       .  S
C1495      F1501   1.380       .  S
C1498      F1502   1.384       .  S
C1498      F1503   1.381       .  S
C1498      F1504   1.385       .  S
C1505      C1506   1.405   1_655  A
C1505      C1510   1.403       .  A
C1505      H1512   1.083       .  S
C1506      C1507   1.418       .  A
C1507      C1508   1.403   1_455  A
C1507      C1514   1.518       .  S
C1508      C1509   1.404       .  A
C1508      H1513   1.083       .  S
C1509      C1510   1.417       .  A
C1510      C1511   1.521       .  S
C1511      F1515   1.385       .  S
C1511      F1516   1.380       .  S
C1511      F1517   1.384       .  S
C1514      F1518   1.383       .  S
C1514      F1519   1.384       .  S
C1514      F1520   1.382       .  S
C1521      C1522   1.401       .  A
C1521      C1526   1.400       .  A
C1521      H1528   1.084       .  S
C1522      C1523   1.405       .  A
C1523      C1524   1.398       .  A
C1523      C1530   1.519       .  S
C1524      C1525   1.408   1_545  A
C1524      H1529   1.082   1_545  S
C1525      C1526   1.416   1_565  A
C1526      C1527   1.519   1_545  S
C1527      F1531   1.385   1_565  S
C1527      F1532   1.380       .  S
C1527      F1533   1.383       .  S
C1530      F1534   1.381       .  S
C1530      F1535   1.384       .  S
C1530      F1536   1.383       .  S
C1537      C1538   1.402       .  A
C1537      C1542   1.401       .  A
C1537      H1544   1.082       .  S
C1538      C1539   1.414       .  A
C1539      C1540   1.403       .  A
C1539      C1546   1.517       .  S
C1540      C1541   1.401       .  A
C1540      H1545   1.084       .  S
C1541      C1542   1.413       .  A
C1542      C1543   1.519       .  S
C1543      F1547   1.384       .  S
C1543      F1548   1.383       .  S
C1543      F1549   1.382       .  S
C1546      F1550   1.383       .  S
C1546      F1551   1.382       .  S
C1546      F1552   1.384   1_655  S
C1553      C1554   1.407       .  A
C1553      C1558   1.396       .  A
C1553      H1560   1.083       .  S
C1554      C1555   1.415       .  A
C1555      C1556   1.399       .  A
C1555      C1562   1.516       .  S
C1556      C1557   1.400       .  A
C1556      H1561   1.084       .  S
C1557      C1558   1.408       .  A
C1558      C1559   1.522       .  S
C1559      F1563   1.384       .  S
C1559      F1564   1.380       .  S
C1559      F1565   1.383       .  S
C1562      F1566   1.377       .  S
C1562      F1567   1.383       .  S
C1562      F1568   1.385       .  S
C1569      C1570   1.399       .  A
C1569      C1574   1.409   1_554  A
C1569      H1576   1.084       .  S
C1570      C1571   1.427   1_554  A
C1571      C1572   1.408       .  A
C1571      C1578   1.515       .  S
C1572      C1573   1.398       .  A
C1572      H1577   1.084       .  S
C1573      C1574   1.427       .  A
C1574      C1575   1.516   1_556  S
C1575      F1579   1.384       .  S
C1575      F1580   1.381       .  S
C1575      F1581   1.383   1_554  S
C1578      F1582   1.380       .  S
C1578      F1583   1.384   1_556  S
C1578      F1584   1.384       .  S
C1585      C1586   1.403       .  A
C1585      C1590   1.398       .  A
C1585      H1592   1.083       .  S
C1586      C1587   1.415       .  A
C1587      C1588   1.398       .  A
C1587      C1594   1.519       .  S
C1588      C1589   1.404       .  A
C1588      H1593   1.083       .  S
C1589      C1590   1.417       .  A
C1590      C1591   1.521       .  S
C1591      F1595   1.385       .  S
C1591      F1596   1.380       .  S
C1591      F1597   1.384       .  S
C1594      F1598   1.377       .  S
C1594      F1599   1.383       .  S
C1594      F1600   1.385       .  S
C1601      C1602   1.395       .  A
C1601      C1606   1.399       .  A
C1601      H1608   1.084       .  S
C1602      C1603   1.416       .  A
C1603      C1604   1.401       .  A
C1603      C1610   1.517       .  S
C1604      C1605   1.401       .  A
C1604      H1609   1.085       .  S
C1605      C1606   1.421       .  A
C1606      C1607   1.515       .  S
C1607      F1611   1.385       .  S
C1607      F1612   1.384       .  S
C1607      F1613   1.381       .  S
C1610      F1614   1.384       .  S
C1610      F1615   1.382       .  S
C1610      F1616   1.379       .  S
C1617      C1618   1.402       .  A
C1617      C1622   1.414       .  A
C1617      H1624   1.083       .  S
C1618      C1619   1.426       .  A
C1619      C1620   1.405       .  A
C1619      C1626   1.519       .  S
C1620      C1621   1.401       .  A
C1620      H1625   1.083       .  S
C1621      C1622   1.429       .  A
C1622      C1623   1.520       .  S
C1623      F1627   1.385       .  S
C1623      F1628   1.383       .  S
C1623      F1629   1.379       .  S
C1626      F1630   1.384       .  S
C1626      F1631   1.379       .  S
C1626      F1632   1.385       .  S
C1633      C1634   1.408       .  A
C1633      C1638   1.412       .  A
C1633      H1640   1.082       .  S
C1634      C1635   1.425       .  A
C1635      C1636   1.413       .  A
C1635      C1642   1.518       .  S
C1636      C1637   1.407       .  A
C1636      H1641   1.082       .  S
C1637      C1638   1.424       .  A
C1638      C1639   1.519       .  S
C1639      F1643   1.384       .  S
C1639      F1644   1.380       .  S
C1639      F1645   1.383       .  S
C1642      F1646   1.382       .  S
C1642      F1647   1.384       .  S
C1642      F1648   1.384       .  S
C1649      C1650   1.406   1_565  A
C1649      C1654   1.397       .  A
C1649      H1656   1.083       .  S
C1650      C1651   1.416       .  A
C1651      C1652   1.396   1_545  A
C1651      C1658   1.521       .  S
C1652      C1653   1.403       .  A
C1652      H1657   1.084       .  S
C1653      C1654   1.407       .  A
C1654      C1655   1.516       .  S
C1655      F1659   1.383       .  S
C1655      F1660   1.379       .  S
C1655      F1661   1.383       .  S
C1658      F1662   1.381       .  S
C1658      F1663   1.384       .  S
C1658      F1664   1.385       .  S
C1665      C1666   1.405       .  A
C1665      C1670   1.404       .  A
C1665      H1672   1.082       .  S
C1666      C1667   1.422       .  A
C1667      C1668   1.401       .  A
C1667      C1674   1.523       .  S
C1668      C1669   1.401       .  A
C1668      H1673   1.083       .  S
C1669      C1670   1.414       .  A
C1670      C1671   1.518       .  S
C1671      F1675   1.382       .  S
C1671      F1676   1.384       .  S
C1671      F1677   1.379       .  S
C1674      F1678   1.383       .  S
C1674      F1679   1.383       .  S
C1674      F1680   1.385       .  S
C1681      C1682   1.402       .  A
C1681      C1686   1.396       .  A
C1681      H1688   1.083       .  S
C1682      C1683   1.424       .  A
C1683      C1684   1.400       .  A
C1683      C1690   1.518       .  S
C1684      C1685   1.394       .  A
C1684      H1689   1.084       .  S
C1685      C1686   1.413       .  A
C1686      C1687   1.519       .  S
C1687      F1691   1.385       .  S
C1687      F1692   1.383       .  S
C1687      F1693   1.380       .  S
C1690      F1694   1.384       .  S
C1690      F1695   1.382       .  S
C1690      F1696   1.385       .  S
C1697      C1698   1.417       .  A
C1697      C1702   1.404       .  A
C1697      H1704   1.078       .  S
C1698      C1699   1.426       .  A
C1699      C1700   1.407       .  A
C1699      C1706   1.518       .  S
C1700      C1701   1.400       .  A
C1700      H1705   1.083       .  S
C1701      C1702   1.405       .  A
C1702      C1703   1.519       .  S
C1703      F1707   1.380       .  S
C1703      F1708   1.383       .  S
C1703      F1709   1.380       .  S
C1706      F1710   1.383       .  S
C1706      F1711   1.383       .  S
C1706      F1712   1.384       .  S
C1713      C1714   1.404       .  A
C1713      C1718   1.408       .  A
C1713      H1720   1.083       .  S
C1714      C1715   1.414   1_655  A
C1715      C1716   1.407       .  A
C1715      C1722   1.519       .  S
C1716      C1717   1.409       .  A
C1716      H1721   1.080       .  S
C1717      C1718   1.420   1_455  A
C1718      C1719   1.518       .  S
C1719      F1723   1.384       .  S
C1719      F1724   1.382       .  S
C1719      F1725   1.383       .  S
C1722      F1726   1.381       .  S
C1722      F1727   1.383       .  S
C1722      F1728   1.382       .  S
