geometry optimzed in LAMMPS
_audit_creation_date              2020-11-30 
_audit_creation_method            'lammps2cif' 
_symmetry_space_group_name_H-M    'P1' 
_symmetry_Int_Tables_number       1 
_symmetry_cell_setting            triclinic 
loop_ 
_symmetry_equiv_pos_as_xyz 
  x,y,z 
_cell_length_a                    26.93167278 
_cell_length_b                    26.749641326104967 
_cell_length_c                    44.40126841709568 
_cell_angle_alpha                 89.74420821926753 
_cell_angle_beta                  89.76224005829415 
_cell_angle_gamma                 89.64472483494194 
loop_ 
_atom_site_label 
_atom_site_type_symbol 
_atom_site_fract_x 
_atom_site_fract_y 
_atom_site_fract_z 
_atom_site_charge 
C1          C  0.50771234  0.23072260  0.38279874     0.85700
C2          C  0.46470343  0.26980063  0.38121725    -0.54500
C3          C  0.47046593  0.30769367  0.36028670     0.08600
C4          C  0.52188598  0.30440257  0.34493112     0.19600
C5          C  0.51614436  0.21438310  0.34996115    -0.55300
C6          C  0.52323806  0.25271340  0.33008527     0.08700
C7          C  0.55197583  0.26394753  0.39068662    -0.54800
C8          C  0.55975998  0.30220673  0.37108928     0.09300
H9          H  0.43405885  0.27069149  0.39695069     0.13800
H10         H  0.53037623  0.33299774  0.32813881    -0.00500
H11         H  0.51559526  0.17552821  0.34302218     0.14100
H12         H  0.57428647  0.25875579  0.41080389     0.13900
C13         C  0.23292388  0.49391591  0.39009535     0.85700
C14         C  0.25990186  0.54370968  0.39273916    -0.54500
C15         C  0.29707098  0.55042034  0.37243669     0.08600
C16         C  0.30321702  0.50661022  0.34988254     0.19600
C17         C  0.21531665  0.49062815  0.35689864    -0.55300
C18         C  0.25170075  0.49850736  0.33588215     0.08700
C19         C  0.27524928  0.45424140  0.39103062    -0.54800
C20         C  0.31226581  0.45972955  0.36978948     0.09300
H21         H  0.25276512  0.56993636  0.41090618     0.13800
H22         H  0.33084770  0.51331048  0.33192610    -0.00500
H23         H  0.17757888  0.48162539  0.35054115     0.14100
H24         H  0.27520432  0.42321036  0.40644409     0.13900
C25         C  0.77882331  0.50649042  0.38764446     0.85700
C26         C  0.74312338  0.46322459  0.39322720    -0.54500
C27         C  0.70324725  0.46183641  0.37450656     0.08600
C28         C  0.70159626  0.50573787  0.35188443     0.19600
C29         C  0.79185010  0.50441638  0.35351795    -0.55300
C30         C  0.75163877  0.50353819  0.33455355     0.08700
C31         C  0.74574875  0.55393229  0.38947870    -0.54800
C32         C  0.70444936  0.55298720  0.37167380     0.09300
H33         H  0.74902821  0.43570775  0.41094497     0.13800
H34         H  0.66882283  0.50523023  0.33684758    -0.00500
H35         H  0.82956659  0.50503584  0.34499861     0.14100
H36         H  0.75397410  0.58578687  0.40360970     0.13900
C37         C  0.49527120  0.77397584  0.39098704     0.85700
C38         C  0.54386016  0.74405221  0.39296624    -0.54500
C39         C  0.54559932  0.70231405  0.37556746     0.08600
C40         C  0.49807924  0.69419326  0.35706122     0.19600
C41         C  0.48834473  0.78475325  0.35670988    -0.53300
C42         C  0.49073209  0.74293706  0.33841803     0.08700
C43         C  0.45310648  0.73689880  0.39682650    -0.54800
C44         C  0.45474969  0.69491728  0.37999555     0.09300
H45         H  0.57467846  0.75544694  0.40702343     0.13800
H46         H  0.50084409  0.65936938  0.34383706    -0.00500
H47         H  0.48021635  0.82165578  0.34777148     0.14100
H48         H  0.42157778  0.74504418  0.41137106     0.13900
C49         C  0.50686384  0.23485893  0.14637791     0.85700
C50         C  0.54537981  0.27531559  0.13844730    -0.54500
C51         C  0.54806340  0.31327209  0.15859372     0.08600
C52         C  0.50986294  0.30876792  0.18453303     0.19600
C53         C  0.51819300  0.21886189  0.17905322    -0.55300
C54         C  0.51944422  0.25740745  0.19911888     0.08700
C55         C  0.45841704  0.26617021  0.14834529    -0.54800
C56         C  0.45782876  0.30368817  0.16958381     0.09300
H57         H  0.56751916  0.27565724  0.11803061     0.13800
H58         H  0.51471443  0.33966269  0.20036451    -0.00500
H59         H  0.52314630  0.18011901  0.18585850     0.14100
H60         H  0.42888770  0.26034726  0.13241793     0.13900
C61         C  0.22619801  0.50275553  0.15198461     0.85700
C62         C  0.26640392  0.46162287  0.14781090    -0.54500
C63         C  0.30445675  0.46154690  0.16855318     0.08600
C64         C  0.29980238  0.50704287  0.19008678     0.19600
C65         C  0.21113462  0.49600909  0.18533802    -0.55300
C66         C  0.24881850  0.50093115  0.20518858     0.08700
C67         C  0.25536176  0.55174846  0.15053365    -0.54800
C68         C  0.29491459  0.55353574  0.16936870     0.09300
H69         H  0.26423823  0.43472193  0.12973901     0.13800
H70         H  0.32823979  0.51076884  0.20754674    -0.00500
H71         H  0.17510413  0.48278598  0.19329095     0.14100
H72         H  0.24758195  0.58115639  0.13425681     0.13900
C73         C  0.76997682  0.51753035  0.14759858     0.85700
C74         C  0.73837848  0.56542880  0.14638951    -0.54500
C75         C  0.69820176  0.56590423  0.16528690     0.08600
C76         C  0.69394537  0.51812668  0.18493108     0.19600
C77         C  0.78410949  0.51122360  0.18144569    -0.55300
C78         C  0.74455100  0.51245934  0.20135555     0.08700
C79         C  0.73297607  0.47454386  0.14337341    -0.54800
C80         C  0.69292089  0.47467901  0.16218396     0.09300
H81         H  0.74655442  0.59609972  0.13108156     0.13800
H82         H  0.66153883  0.51868525  0.20041238    -0.00500
H83         H  0.82187516  0.50478605  0.18899827     0.14100
H84         H  0.73910202  0.44426720  0.12763549     0.13900
C85         C  0.48478031  0.78607464  0.15334447     0.85700
C86         C  0.44747584  0.74498311  0.14481036    -0.54500
C87         C  0.44983979  0.70307575  0.16227405     0.08600
C88         C  0.49241129  0.70381914  0.18539426     0.19600
C89         C  0.47704662  0.79337107  0.18760135    -0.55300
C90         C  0.48217266  0.75065630  0.20486608     0.08700
C91         C  0.53516390  0.75848381  0.15024483    -0.54800
C92         C  0.53936902  0.71564657  0.16689803     0.09300
H93         H  0.42076450  0.74810926  0.12673957     0.13800
H94         H  0.49688926  0.66842950  0.19812069    -0.00500
H95         H  0.46820247  0.82960071  0.19719156     0.14100
H96         H  0.56461120  0.77080365  0.13526206     0.13900
O97         O  0.95497293  0.54377270  0.04709050    -0.72600
O98         O  0.05730824  0.52911203  0.48951283    -0.72800
O99         O  0.95872929  0.53678159  0.48671606    -0.72700
O100        O  0.05464842  0.53584190  0.04983297    -0.72700
O101        O  0.04966446  0.45479838  0.05198506    -0.72600
O102        O  0.95214945  0.45602319  0.48943274    -0.72600
O103        O  0.05168599  0.44823475  0.49164995    -0.72600
O104        O  0.94948196  0.46298766  0.04997128    -0.72800
V105        V  0.00740876  0.53561939  0.01840335     1.35200
V106        V  0.00149870  0.45794223  0.02064890     1.35200
C107        C  0.93431729  0.50563862  0.05843619     0.76700
C108        C  0.07173807  0.48668283  0.48035826     0.76700
C109        C  0.93950468  0.49698729  0.47720046     0.76600
C110        C  0.06902402  0.49491332  0.06113794     0.76600
O111        O  0.53089443  0.95715614  0.48664018    -0.72600
O112        O  0.53253902  0.05183459  0.04962933    -0.72800
O113        O  0.52705726  0.95187629  0.04765152    -0.72700
O114        O  0.53639783  0.05764317  0.48977155    -0.72700
O115        O  0.45724418  0.05319559  0.48263342    -0.72600
O116        O  0.44809485  0.96615918  0.05074411    -0.72600
O117        O  0.45399503  0.06531761  0.04243160    -0.72600
O118        O  0.45044519  0.95404112  0.49005307    -0.72800
V119        V  0.53087500  0.00405357  0.01835798     1.35200
V120        V  0.45407156  0.00910091  0.01656351     1.35200
C121        C  0.49031032  0.93820912  0.47830357     0.76700
C122        C  0.49367189  0.07661746  0.05574375     0.76700
C123        C  0.48603832  0.94343866  0.06072186     0.76600
C124        C  0.49839697  0.07291443  0.47580140     0.76600
C125        C  0.52257721  0.86736280  0.13074396    -0.02600
C126        C  0.48119066  0.83512691  0.13434152     0.07000
C127        C  0.43702990  0.84939683  0.11908738    -0.02800
C128        C  0.43863085  0.88280853  0.09440059    -0.02800
C129        C  0.48295070  0.90863885  0.08731198     0.07200
C130        C  0.52347893  0.90361888  0.10741173    -0.03000
Br131      Br  0.57907984  0.94904091  0.10498046    -0.01500
Br132      Br  0.57609939  0.86682765  0.15957997    -0.01600
Br133      Br  0.37901958  0.89150035  0.07070936    -0.01500
Br134      Br  0.37264560  0.83470576  0.13607841    -0.01500
C135        C  0.80554811  0.49758258  0.09405112    -0.02600
C136        C  0.81264491  0.51791439  0.12347369     0.07000
C137        C  0.85822999  0.54353710  0.12804800    -0.02800
C138        C  0.89721861  0.54088173  0.10647405    -0.02800
C139        C  0.89264294  0.51077976  0.08061364     0.07200
C140        C  0.84629333  0.48910511  0.07458720    -0.03000
Br141      Br  0.83684800  0.45130230  0.03803954    -0.01500
Br142      Br  0.74051185  0.49456352  0.07565674    -0.01600
Br143      Br  0.95669363  0.57978674  0.11211973    -0.01500
Br144      Br  0.86657465  0.58849444  0.16125367    -0.01500
C145        C  0.59886564  0.65926678  0.13820466    -0.02600
C146        C  0.58348299  0.68119187  0.16566364     0.07000
C147        C  0.60838121  0.66744461  0.19238271    -0.02800
C148        C  0.64645287  0.63115201  0.19204307    -0.02800
C149        C  0.66008795  0.60713310  0.16504570     0.07200
C150        C  0.63591710  0.62159176  0.13801780    -0.03000
Br151      Br  0.64873357  0.58624261  0.10095762    -0.01500
Br152      Br  0.56808198  0.67874146  0.10059740    -0.01600
Br153      Br  0.68078530  0.61618838  0.22888493    -0.01500
Br154      Br  0.59306953  0.70011911  0.22969555    -0.01500
C155        C  0.13252578  0.50209698  0.13622934    -0.02600
C156        C  0.18406727  0.50191263  0.12833226     0.07000
C157        C  0.19590953  0.50402615  0.09698558    -0.02800
C158        C  0.15774134  0.50532738  0.07538922    -0.02800
C159        C  0.10863898  0.49461764  0.08390069     0.07200
C160        C  0.09673166  0.49038610  0.11450060    -0.03000
Br161      Br  0.03032230  0.47285048  0.12686225    -0.01500
Br162      Br  0.10625201  0.53775062  0.17063055    -0.01600
Br163      Br  0.17225571  0.52533868  0.03449458    -0.01500
Br164      Br  0.26350220  0.50847397  0.08230828    -0.01500
C165        C  0.32503822  0.64154128  0.17692055    -0.02600
C166        C  0.33348595  0.59286421  0.16601135     0.07000
C167        C  0.37798057  0.58258833  0.15024830    -0.02800
C168        C  0.41687701  0.61748872  0.15022965    -0.02800
C169        C  0.40928787  0.66549815  0.16226318     0.07200
C170        C  0.36227076  0.67806134  0.17447982    -0.03000
Br171      Br  0.35019729  0.74355785  0.19131376    -0.01500
Br172      Br  0.26215394  0.65912633  0.19456977    -0.01600
Br173      Br  0.48035033  0.59887426  0.13388861    -0.01500
Br174      Br  0.38374870  0.52403756  0.12521729    -0.01500
C175        C  0.54448926  0.17833702  0.10471351    -0.02600
C176        C  0.50451966  0.18997681  0.12441597     0.07000
C177        C  0.46258905  0.15787651  0.12346359    -0.02800
C178        C  0.45778602  0.12202788  0.10038799    -0.02800
C179        C  0.49511569  0.11720599  0.07819341     0.07200
C180        C  0.53748837  0.14732029  0.07987151    -0.03000
Br181      Br  0.58635625  0.14811606  0.04779520    -0.01500
Br182      Br  0.61226463  0.18464756  0.11720722    -0.01600
Br183      Br  0.40074828  0.07832543  0.10016163    -0.01500
Br184      Br  0.41511500  0.15601254  0.15587215    -0.01500
C185        C  0.41902448  0.38260413  0.19213400    -0.02600
C186        C  0.41326994  0.33828474  0.17556181     0.07000
C187        C  0.36442581  0.32929684  0.16490616    -0.02800
C188        C  0.32840808  0.36840533  0.16452141    -0.02800
C189        C  0.34205439  0.41867226  0.17164634     0.07200
C190        C  0.38907560  0.42454848  0.18593600    -0.03000
Br191      Br  0.41866519  0.48719975  0.19723293    -0.01500
Br192      Br  0.44620775  0.37973076  0.23230474    -0.01600
Br193      Br  0.25927827  0.34911045  0.15988232    -0.01500
Br194      Br  0.34141038  0.26202530  0.15836123    -0.01500
C195        C  0.67131545  0.38313422  0.16158045    -0.02600
C196        C  0.65521033  0.43362698  0.16119187     0.07000
C197        C  0.60390820  0.44393492  0.15803006    -0.02800
C198        C  0.56974817  0.40461324  0.15455861    -0.02800
C199        C  0.58552344  0.35442184  0.15634195     0.07200
C200        C  0.63701224  0.34410877  0.15816808    -0.03000
Br201      Br  0.66233892  0.27678105  0.15646072    -0.01500
Br202      Br  0.73979006  0.36613550  0.17079159    -0.01600
Br203      Br  0.50268712  0.41965026  0.14259794    -0.01500
Br204      Br  0.57892840  0.51132624  0.15850559    -0.01500
C205        C  0.45944025  0.70915501  0.28748569    -0.02600
C206        C  0.48682828  0.74491313  0.30413942     0.07000
C207        C  0.51390042  0.78101949  0.28740127    -0.02800
C208        C  0.50995131  0.78464027  0.25568461    -0.02800
C209        C  0.48136219  0.74990502  0.23914356     0.07200
C210        C  0.45719248  0.71135085  0.25564870    -0.03000
Br211      Br  0.42031424  0.65926579  0.23596815    -0.01500
Br212      Br  0.42513417  0.65429382  0.30653907    -0.01600
Br213      Br  0.55076886  0.83361270  0.23528228    -0.01500
Br214      Br  0.56525067  0.81932270  0.30643650    -0.01500
C215        C  0.47374287  0.85001699  0.46431596    -0.02600
C216        C  0.48982506  0.89778576  0.45585512     0.07000
C217        C  0.51074280  0.90533452  0.42720805    -0.02800
C218        C  0.51499543  0.86533559  0.40678656    -0.02800
C219        C  0.49488827  0.81764673  0.41386954     0.07200
C220        C  0.47980464  0.80952853  0.44450726    -0.03000
Br221      Br  0.47714909  0.74356356  0.46281208    -0.01500
Br222      Br  0.44559201  0.83944423  0.50397977    -0.01600
Br223      Br  0.55840606  0.87529087  0.37300406    -0.01500
Br224      Br  0.53259108  0.97142491  0.41565740    -0.01500
C225        C  0.72659943  0.46831637  0.28379290    -0.02600
C226        C  0.75502229  0.50271248  0.30038398     0.07000
C227        C  0.78271615  0.53872801  0.28401011    -0.02800
C228        C  0.78043595  0.54094421  0.25202242    -0.02800
C229        C  0.74970861  0.50795638  0.23549000     0.07200
C230        C  0.72236668  0.47202163  0.25213757    -0.03000
Br231      Br  0.67768806  0.42676638  0.23277196    -0.01500
Br232      Br  0.69559580  0.41274736  0.30378830    -0.01600
Br233      Br  0.81514239  0.59399639  0.23169248    -0.01500
Br234      Br  0.82035242  0.58884171  0.30516295    -0.01500
C235        C  0.86447093  0.47116758  0.40610037    -0.02600
C236        C  0.82261133  0.50363150  0.41037516     0.07000
C237        C  0.81834612  0.52647964  0.43918845    -0.02800
C238        C  0.85900335  0.52950162  0.45858457    -0.02800
C239        C  0.90087622  0.49931855  0.45363411     0.07200
C240        C  0.90303770  0.46903263  0.42776553    -0.03000
Br241      Br  0.95957129  0.42525506  0.42181868    -0.01500
Br242      Br  0.86746581  0.42315036  0.37374538    -0.01600
Br243      Br  0.85693601  0.57558598  0.99361760    -0.01500
Br244      Br  0.75546087  0.53657798  0.45858779    -0.01500
C245        C  0.61269333  0.65482694  0.34756269    -0.02600
C246        C  0.58900078  0.66709550  0.37501905     0.07000
C247        C  0.60511217  0.64310093  0.40165830    -0.02800
C248        C  0.63998676  0.60381251  0.40015331    -0.02800
C249        C  0.66497825  0.59268381  0.37286010     0.07200
C250        C  0.65107714  0.61890341  0.34664827    -0.03000
Br251      Br  0.68429499  0.60640735  0.30908802    -0.01500
Br252      Br  0.59580887  0.68905908  0.31097320    -0.01600
Br253      Br  0.64441555  0.55959603  0.43424569    -0.01500
Br254      Br  0.57989390  0.66258960  0.44071854    -0.01500
C255        C  0.26408533  0.45605393  0.28556633    -0.02600
C256        C  0.24377835  0.49593507  0.30241492     0.07000
C257        C  0.21744056  0.53373222  0.28669196    -0.02800
C258        C  0.21704917  0.53456574  0.25486695    -0.02800
C259        C  0.24203507  0.49700908  0.23843485     0.07200
C260        C  0.26187793  0.45596860  0.25404435    -0.03000
Br261      Br  0.28045883  0.39636458  0.23276802    -0.01500
Br262      Br  0.29250403  0.39876555  0.30448055    -0.01600
Br263      Br  0.18085748  0.58639847  0.23407674    -0.01500
Br264      Br  0.18097326  0.58425969  0.30794757    -0.01500
C265        C  0.14543306  0.51752138  0.40994301    -0.02600
C266        C  0.19066581  0.49023126  0.41406642     0.07000
C267        C  0.19655594  0.46489768  0.44224496    -0.02800
C268        C  0.15538875  0.45733791  0.46155223    -0.02800
C269        C  0.11060944  0.48341339  0.45657001     0.07200
C270        C  0.10578783  0.51314616  0.43057368    -0.03000
Br271      Br  0.04343591  0.54731093  0.42269648    -0.01500
Br272      Br  0.13851111  0.56856289  0.37946168    -0.01600
Br273      Br  0.16290527  0.41312646  0.99512713    -0.01500
Br274      Br  0.26097118  0.45581521  0.46070124    -0.01500
C275        C  0.32919051  0.63759451  0.36399773    -0.02600
C276        C  0.33470946  0.58995954  0.37715217     0.07000
C277        C  0.37558005  0.58076708  0.39622414    -0.02800
C278        C  0.41609025  0.61370305  0.39594305    -0.02800
C279        C  0.41249435  0.65958045  0.38048193     0.07200
C280        C  0.36681692  0.67342396  0.36718401    -0.03000
Br281      Br  0.35659357  0.74042815  0.35172031    -0.01500
Br282      Br  0.26995599  0.65455940  0.34233684    -0.01600
Br283      Br  0.47600440  0.59562406  0.41674715    -0.01500
Br284      Br  0.37596848  0.52394568  0.42324709    -0.01500
C285        C  0.48680698  0.22392672  0.28062675    -0.02600
C286        C  0.52598075  0.24667428  0.29657323     0.07000
C287        C  0.56503274  0.26879566  0.28003858    -0.02800
C288        C  0.56398258  0.27003218  0.24836184    -0.02800
C289        C  0.52345554  0.25033002  0.23248948     0.07200
C290        C  0.48500621  0.22689001  0.24889672    -0.03000
Br291      Br  0.42711514  0.20270345  0.22844451    -0.01500
Br292      Br  0.43362418  0.19054395  0.30169391    -0.01600
Br293      Br  0.61907837  0.29847037  0.22713755    -0.01500
Br294      Br  0.62130798  0.29684928  0.30026973    -0.01500
C295        C  0.54504629  0.11976308  0.43467250    -0.02600
C296        C  0.50140542  0.11257543  0.45204239     0.07000
C297        C  0.45879444  0.14132635  0.44495766    -0.02800
C298        C  0.45837617  0.17295127  0.41965444    -0.02800
C299        C  0.50316657  0.18552822  0.40465842     0.07200
C300        C  0.54557710  0.15513257  0.41093597    -0.03000
Br301      Br  0.60358929  0.15675603  0.38516771    -0.01500
Br302      Br  0.60529924  0.08215574  0.44282860    -0.01600
Br303      Br  0.39461525  0.18162158  0.40092100    -0.01500
Br304      Br  0.40058080  0.14169148  0.47074342    -0.01500
C305        C  0.43905357  0.39847999  0.34857129    -0.02600
C306        C  0.43016233  0.34728851  0.35528109     0.07000
C307        C  0.38021261  0.33346838  0.35955039    -0.02800
C308        C  0.34305181  0.36903350  0.36629799    -0.02800
C309        C  0.35360127  0.42126369  0.36483519     0.07200
C310        C  0.40209530  0.43512311  0.35467826    -0.03000
Br311      Br  0.42235665  0.50385762  0.34987846    -0.01500
Br312      Br  0.49756352  0.42088935  0.32695950    -0.01600
Br313      Br  0.27658753  0.34292703  0.37304661    -0.01500
Br314      Br  0.36021753  0.26724326  0.34799298    -0.01500
C315        C  0.58231997  0.38990581  0.38313986    -0.02600
C316        C  0.59767029  0.34109335  0.37644083     0.07000
C317        C  0.64875815  0.33056123  0.37382233    -0.02800
C318        C  0.68335327  0.36974954  0.37442773    -0.02800
C319        C  0.66665304  0.42019283  0.37581782     0.07200
C320        C  0.61523112  0.42975340  0.37937365    -0.03000
Br321      Br  0.58670432  0.49562680  0.37728291    -0.01500
Br322      Br  0.52001819  0.40102528  0.40367753    -0.01600
Br323      Br  0.75293220  0.35311372  0.36966411    -0.01500
Br324      Br  0.67201193  0.26268665  0.36978353    -0.01500
C325        C  0.50790236  0.23071454  0.88309390     0.85700
C326        C  0.46478721  0.26972913  0.88130891    -0.54500
C327        C  0.47062081  0.30750510  0.86028561     0.08600
C328        C  0.52210508  0.30419224  0.84506784     0.19600
C329        C  0.51650538  0.21420009  0.85032086    -0.55300
C330        C  0.52351390  0.25236661  0.83035768     0.08700
C331        C  0.55200101  0.26414960  0.89100107    -0.54800
C332        C  0.55974965  0.30241752  0.87137547     0.09300
H333        H  0.43410294  0.27083298  0.89702464     0.13800
H334        H  0.53065594  0.33259757  0.82817813    -0.00500
H335        H  0.51598601  0.17529868  0.84346986     0.14100
H336        H  0.57412305  0.25916715  0.91121251     0.13900
C337        C  0.23370906  0.49427876  0.88944453     0.85700
C338        C  0.26079556  0.54396359  0.89219566    -0.54500
C339        C  0.29793094  0.55070286  0.87189792     0.08600
C340        C  0.30404667  0.50703827  0.84926180     0.19600
C341        C  0.21609873  0.49125502  0.85623204    -0.55300
C342        C  0.25251660  0.49915904  0.83521627     0.08700
C343        C  0.27587748  0.45446581  0.89028405    -0.54800
C344        C  0.31294817  0.46004533  0.86910781     0.09300
H345        H  0.25364788  0.57017845  0.91037019     0.13800
H346        H  0.33174817  0.51378402  0.83135062    -0.00500
H347        H  0.17833611  0.48238746  0.84986107     0.14100
H348        H  0.27560357  0.42311439  0.90548992     0.13900
C349        C  0.77835270  0.50774793  0.88880577     0.85700
C350        C  0.74266550  0.46459553  0.89486649    -0.54500
C351        C  0.70247254  0.46297171  0.87638086     0.08600
C352        C  0.70054315  0.50654117  0.85351287     0.19600
C353        C  0.79077220  0.50513568  0.85461179    -0.55300
C354        C  0.75029377  0.50397883  0.83587391     0.08700
C355        C  0.74536814  0.55525752  0.89059231    -0.54800
C356        C  0.70383576  0.55414392  0.87297928     0.09300
H357        H  0.74890726  0.43725320  0.91263985     0.13800
H358        H  0.66746340  0.50587575  0.83872095    -0.00500
H359        H  0.82834560  0.50566207  0.84586708     0.14100
H360        H  0.75389956  0.58731615  0.90448967     0.13900
C361        C  0.49449522  0.77547693  0.88986557     0.85700
C362        C  0.54310801  0.74569515  0.89215271    -0.54500
C363        C  0.54509488  0.70365882  0.87505483     0.08600
C364        C  0.49783942  0.69525337  0.85636409     0.19600
C365        C  0.48794093  0.78583478  0.85553149    -0.53300
C366        C  0.49063854  0.74376532  0.83749291     0.08700
C367        C  0.45226761  0.73850963  0.89562657    -0.54800
C368        C  0.45427103  0.69628546  0.87907021     0.09300
H369        H  0.57380298  0.75746977  0.90619294     0.13800
H370        H  0.50068183  0.66024833  0.84331438    -0.00500
H371        H  0.47954367  0.82247720  0.84631377     0.14100
H372        H  0.42056944  0.74680901  0.91000945     0.13900
C373        C  0.50481865  0.23484269  0.64667263     0.85700
C374        C  0.54350038  0.27515949  0.63882146    -0.54500
C375        C  0.54609489  0.31316033  0.65894343     0.08600
C376        C  0.50771286  0.30877538  0.68480784     0.19600
C377        C  0.51592535  0.21884889  0.67936970    -0.55300
C378        C  0.51720011  0.25739526  0.69943562     0.08700
C379        C  0.45645099  0.26628272  0.64848247    -0.54800
C380        C  0.45575320  0.30382050  0.66970527     0.09300
H381        H  0.56589758  0.27527959  0.61850365     0.13800
H382        H  0.51249570  0.33968325  0.70064556    -0.00500
H383        H  0.52096962  0.18011164  0.68616233     0.14100
H384        H  0.42715538  0.26061674  0.63239083     0.13900
C385        C  0.22491037  0.50397805  0.65146775     0.85700
C386        C  0.26511854  0.46287493  0.64719712    -0.54500
C387        C  0.30305097  0.46254179  0.66801499     0.08600
C388        C  0.29839502  0.50794464  0.68961885     0.19600
C389        C  0.20973442  0.49702542  0.68477235    -0.55300
C390        C  0.24736541  0.50183769  0.70463461     0.08700
C391        C  0.25403681  0.55297722  0.65016365    -0.54800
C392        C  0.29356596  0.55456420  0.66901453     0.09300
H393        H  0.26303464  0.43620408  0.62900045     0.13800
H394        H  0.32678469  0.51156787  0.70711675    -0.00500
H395        H  0.17366844  0.48380041  0.69267774     0.14100
H396        H  0.24630180  0.58250203  0.63395784     0.13900
C397        C  0.76892100  0.51594996  0.64872285     0.85700
C398        C  0.73762015  0.56405358  0.64741047    -0.54500
C399        C  0.69734092  0.56487761  0.66623606     0.08600
C400        C  0.69274280  0.51727753  0.68600178     0.19600
C401        C  0.78288065  0.50970871  0.68262623    -0.55300
C402        C  0.74324927  0.51134715  0.70250226     0.08700
C403        C  0.73161878  0.47323673  0.64457376    -0.54800
C404        C  0.69149853  0.47377523  0.66334205     0.09300
H405        H  0.74597835  0.59454487  0.63200967     0.13800
H406        H  0.66029386  0.51807506  0.70144499    -0.00500
H407        H  0.82056196  0.50303365  0.69025064     0.14100
H408        H  0.73760905  0.44279302  0.62894011     0.13900
C409        C  0.48472820  0.78586891  0.65257756     0.85700
C410        C  0.44699448  0.74517984  0.64411050    -0.54500
C411        C  0.44892556  0.70336803  0.66166388     0.08600
C412        C  0.49143134  0.70381580  0.68484272     0.19600
C413        C  0.47702270  0.79353921  0.68678348    -0.55300
C414        C  0.48165087  0.75093475  0.70415075     0.08700
C415        C  0.53483998  0.75766450  0.64956646    -0.54800
C416        C  0.53860509  0.71496117  0.66640181     0.09300
H417        H  0.42026150  0.74860906  0.62605709     0.13800
H418        H  0.49544695  0.66849077  0.69769205    -0.00500
H419        H  0.46860149  0.82994366  0.69627273     0.14100
H420        H  0.56443054  0.76949717  0.63455068     0.13900
O421        O  0.95325343  0.54219073  0.54735679    -0.72600
O422        O  0.05964409  0.53048992  0.98976260    -0.72800
O423        O  0.96103971  0.53896876  0.98651280    -0.72700
O424        O  0.05305357  0.53507529  0.54951940    -0.72700
O425        O  0.04835855  0.45404797  0.55222074    -0.72600
O426        O  0.95353772  0.45829762  0.98915501    -0.72600
O427        O  0.05301871  0.44965924  0.99135576    -0.72600
O428        O  0.94804375  0.46140548  0.55032265    -0.72800
V429        V  0.00539973  0.53413009  0.51839074     1.35200
V430        V  0.00009578  0.45642815  0.52094111     1.35200
C431        C  0.93280761  0.50402954  0.55883747     0.76700
C432        C  0.07354878  0.48805194  0.98033989     0.76700
C433        C  0.94126300  0.49943431  0.97699464     0.76600
C434        C  0.06772379  0.49439934  0.56098375     0.76600
O435        O  0.53157497  0.95618290  0.98689722    -0.72600
O436        O  0.53139705  0.05218063  0.54974703    -0.72800
O437        O  0.52628068  0.95227205  0.54721480    -0.72700
O438        O  0.53728620  0.05660533  0.98956244    -0.72700
O439        O  0.45801621  0.05244946  0.98273177    -0.72600
O440        O  0.44736988  0.96656899  0.55051603    -0.72600
O441        O  0.45293055  0.06576268  0.54233174    -0.72600
O442        O  0.45109161  0.95351107  0.99025889    -0.72800
V443        V  0.53000836  0.00476542  0.51825320     1.35200
V444        V  0.45323212  0.00964465  0.51638934     1.35200
C445        C  0.49088379  0.93764695  0.97844113     0.76700
C446        C  0.49248020  0.07693192  0.55581572     0.76700
C447        C  0.48538117  0.94377355  0.56035090     0.76600
C448        C  0.49917801  0.07188952  0.97566295     0.76600
C449        C  0.52318537  0.86644879  0.62957223    -0.02600
C450        C  0.48143932  0.83484565  0.63355232     0.07000
C451        C  0.43694993  0.84997943  0.61895077    -0.02800
C452        C  0.43815579  0.88366105  0.59440763    -0.02800
C453        C  0.48264088  0.90881254  0.58683922     0.07200
C454        C  0.52387939  0.90284119  0.60633904    -0.03000
Br455      Br  0.58041658  0.94702386  0.60327518    -0.01500
Br456      Br  0.57739013  0.86523014  0.65796539    -0.01600
Br457      Br  0.37776225  0.89364145  0.57160228    -0.01500
Br458      Br  0.37294543  0.83581120  0.63658596    -0.01500
C459        C  0.80430478  0.49562660  0.59506497    -0.02600
C460        C  0.81159709  0.51593425  0.62450830     0.07000
C461        C  0.85730013  0.54146066  0.62893913    -0.02800
C462        C  0.89600210  0.53911691  0.60712298    -0.02800
C463        C  0.89127717  0.50908639  0.58122903     0.07200
C464        C  0.84489820  0.48730029  0.57541525    -0.03000
Br465      Br  0.83515162  0.44972310  0.53881009    -0.01500
Br466      Br  0.73915070  0.49229388  0.57683726    -0.01600
Br467      Br  0.95517493  0.57860598  0.61240430    -0.01500
Br468      Br  0.86631428  0.58572338  0.66241813    -0.01500
C469        C  0.59840177  0.65800966  0.63827763    -0.02600
C470        C  0.58258487  0.68021602  0.66556485     0.07000
C471        C  0.60701004  0.66656182  0.69248198    -0.02800
C472        C  0.64508957  0.63026794  0.69248865    -0.02800
C473        C  0.65921063  0.60609117  0.66564500     0.07200
C474        C  0.63540303  0.62027418  0.63844337    -0.03000
Br475      Br  0.64855260  0.58440221  0.60162048    -0.01500
Br476      Br  0.56834295  0.67720115  0.60040547    -0.01600
Br477      Br  0.67875968  0.61546330  0.72960660    -0.01500
Br478      Br  0.59118375  0.69934169  0.72963873    -0.01500
C479        C  0.13137675  0.50288501  0.63582760    -0.02600
C480        C  0.18284399  0.50318426  0.62785215     0.07000
C481        C  0.19461348  0.50545690  0.59651293    -0.02800
C482        C  0.15637497  0.50613614  0.57497097    -0.02800
C483        C  0.10747111  0.49470418  0.58359576     0.07200
C484        C  0.09570214  0.49052072  0.61420650    -0.03000
Br485      Br  0.02957719  0.47226431  0.62673112    -0.01500
Br486      Br  0.10489731  0.53894025  0.67002202    -0.01600
Br487      Br  0.17051408  0.52615754  0.53402843    -0.01500
Br488      Br  0.26212315  0.51089121  0.58181745    -0.01500
C489        C  0.32406170  0.64233945  0.67666867    -0.02600
C490        C  0.33225224  0.59369932  0.66564964     0.07000
C491        C  0.37654394  0.58329597  0.64971624    -0.02800
C492        C  0.41554005  0.61804407  0.64959229    -0.02800
C493        C  0.40816244  0.66607976  0.66162141     0.07200
C494        C  0.36126355  0.67882581  0.67394266    -0.03000
Br495      Br  0.34938718  0.74444943  0.69063231    -0.01500
Br496      Br  0.26174462  0.65974938  0.69512868    -0.01600
Br497      Br  0.47886475  0.59913342  0.63314178    -0.01500
Br498      Br  0.38200781  0.52468846  0.62471841    -0.01500
C499        C  0.54284715  0.17815294  0.60529321    -0.02600
C500        C  0.50258342  0.18998293  0.62470939     0.07000
C501        C  0.46055695  0.15806182  0.62350017    -0.02800
C502        C  0.45604712  0.12222845  0.60038174    -0.02800
C503        C  0.49371478  0.11735951  0.57838060     0.07200
C504        C  0.53616107  0.14730836  0.58035723    -0.03000
Br505      Br  0.58566402  0.14805691  0.54863873    -0.01500
Br506      Br  0.61031058  0.18357147  0.61845975    -0.01600
Br507      Br  0.39898982  0.07858659  0.59986827    -0.01500
Br508      Br  0.41257170  0.15644752  0.65566003    -0.01500
C509        C  0.41694501  0.38295806  0.69202912    -0.02600
C510        C  0.41125041  0.33867644  0.67540823     0.07000
C511        C  0.36253835  0.32999683  0.66441498    -0.02800
C512        C  0.32670366  0.36928804  0.66385418    -0.02800
C513        C  0.34043723  0.41946527  0.67116172     0.07200
C514        C  0.38729305  0.42506826  0.68568197    -0.03000
Br515      Br  0.41715018  0.48760899  0.69694030    -0.01500
Br516      Br  0.44363138  0.37993872  0.73231184    -0.01600
Br517      Br  0.25759693  0.35030934  0.65862720    -0.01500
Br518      Br  0.33927503  0.26288071  0.65759886    -0.01500
C519        C  0.66946695  0.38249932  0.66258982    -0.02600
C520        C  0.65353913  0.43302065  0.66235408     0.07000
C521        C  0.60229188  0.44358494  0.65909332    -0.02800
C522        C  0.56806272  0.40442605  0.65527465    -0.02800
C523        C  0.58369000  0.35417383  0.65680393     0.07200
C524        C  0.63513699  0.34368288  0.65868465    -0.03000
Br525      Br  0.66046243  0.27642712  0.65648796    -0.01500
Br526      Br  0.73769270  0.36512789  0.67227653    -0.01600
Br527      Br  0.50122186  0.41980535  0.64303676    -0.01500
Br528      Br  0.57741350  0.51102839  0.65996676    -0.01500
C529        C  0.45900505  0.70993295  0.78675436    -0.02600
C530        C  0.48689842  0.74539775  0.80327388     0.07000
C531        C  0.51445826  0.78103607  0.78651057    -0.02800
C532        C  0.51014740  0.78485359  0.75482658    -0.02800
C533        C  0.48089130  0.75049562  0.73839486     0.07200
C534        C  0.45637743  0.71225070  0.75496167    -0.03000
Br535      Br  0.41850921  0.66073976  0.73545503    -0.01500
Br536      Br  0.42490187  0.65506696  0.80592468    -0.01600
Br537      Br  0.55134066  0.83338963  0.73432555    -0.01500
Br538      Br  0.56691337  0.81796546  0.80553591    -0.01500
C539        C  0.47431284  0.84987890  0.96385714    -0.02600
C540        C  0.49010714  0.89780012  0.95566920     0.07000
C541        C  0.50985244  0.90623901  0.92680438    -0.02800
C542        C  0.51335953  0.86692208  0.90586807    -0.02800
C543        C  0.49392466  0.81889545  0.91285309     0.07200
C544        C  0.47969908  0.80997764  0.94360052    -0.03000
Br545      Br  0.47639186  0.74361511  0.96136401    -0.01500
Br546      Br  0.44737762  0.83836113  0.00374531    -0.01600
Br547      Br  0.55436647  0.87861749  0.87111801    -0.01500
Br548      Br  0.53091035  0.97267392  0.91563480    -0.01500
C549        C  0.72458966  0.46846198  0.78520422    -0.02600
C550        C  0.75332209  0.50282463  0.80166008     0.07000
C551        C  0.78119768  0.53850379  0.78509884    -0.02800
C552        C  0.77892936  0.54034892  0.75310095    -0.02800
C553        C  0.74823500  0.50720211  0.73668629     0.07200
C554        C  0.72066570  0.47162227  0.75348639    -0.03000
Br555      Br  0.67623312  0.42605640  0.73416766    -0.01500
Br556      Br  0.69251512  0.41378935  0.80548591    -0.01600
Br557      Br  0.81360849  0.59315935  0.73252568    -0.01500
Br558      Br  0.81882465  0.58896519  0.80597937    -0.01500
C559        C  0.86455673  0.47286784  0.90665597    -0.02600
C560        C  0.82274063  0.50530047  0.91114455     0.07000
C561        C  0.81935020  0.52884194  0.93978004    -0.02800
C562        C  0.86066537  0.53249359  0.95864527    -0.02800
C563        C  0.90237109  0.50209573  0.95355374     0.07200
C564        C  0.90373607  0.47121435  0.92792426    -0.03000
Br565      Br  0.95997161  0.42711044  0.92179886    -0.01500
Br566      Br  0.86675687  0.42423026  0.87462476    -0.01600
Br567      Br  0.85422821  0.57161836  0.49396896    -0.01500
Br568      Br  0.75698876  0.53853186  0.95987855    -0.01500
C569        C  0.61198804  0.65502898  0.84767164    -0.02600
C570        C  0.58852315  0.66847633  0.87498305     0.07000
C571        C  0.60507791  0.64585256  0.90197532    -0.02800
C572        C  0.64017452  0.60670569  0.90102065    -0.02800
C573        C  0.66470018  0.59420603  0.87379606     0.07200
C574        C  0.65052363  0.61929775  0.84724011    -0.03000
Br575      Br  0.68379896  0.60590416  0.80984462    -0.01500
Br576      Br  0.59449690  0.68721544  0.81050724    -0.01600
Br577      Br  0.64602874  0.56481400  0.93607863    -0.01500
Br578      Br  0.58003730  0.66677063  0.94080061    -0.01500
C579        C  0.26508989  0.45741246  0.78462772    -0.02600
C580        C  0.24445751  0.49688721  0.80173410     0.07000
C581        C  0.21713657  0.53432001  0.78624118    -0.02800
C582        C  0.21598436  0.53518803  0.75442703    -0.02800
C583        C  0.24063553  0.49768749  0.73781833     0.07200
C584        C  0.26106029  0.45682081  0.75321241    -0.03000
Br585      Br  0.27739873  0.39662334  0.73185525    -0.01500
Br586      Br  0.29775366  0.40180866  0.80277055    -0.01600
Br587      Br  0.17913087  0.58683939  0.73386466    -0.01500
Br588      Br  0.18079392  0.58468092  0.80767538    -0.01500
C589        C  0.14651397  0.51832291  0.90958407    -0.02600
C590        C  0.19158982  0.49065978  0.91348834     0.07000
C591        C  0.19766286  0.46529239  0.94164754    -0.02800
C592        C  0.15669423  0.45805868  0.96113583    -0.02800
C593        C  0.11216774  0.48468801  0.95644152     0.07200
C594        C  0.10724471  0.51453907  0.93051194    -0.03000
Br595      Br  0.04524630  0.54971664  0.92316043    -0.01500
Br596      Br  0.13928411  0.56899383  0.87893530    -0.01600
Br597      Br  0.16166756  0.41279684  0.49573180    -0.01500
Br598      Br  0.26221099  0.45563584  0.95985077    -0.01500
C599        C  0.32918463  0.63807556  0.86343898    -0.02600
C600        C  0.33529056  0.59045299  0.87650187     0.07000
C601        C  0.37637413  0.58153176  0.89544464    -0.02800
C602        C  0.41655100  0.61484039  0.89510335    -0.02800
C603        C  0.41235493  0.66070139  0.87970140     0.07200
C604        C  0.36650018  0.67420329  0.86652011    -0.03000
Br605      Br  0.35568915  0.74105688  0.85093244    -0.01500
Br606      Br  0.26958103  0.65462450  0.84204978    -0.01600
Br607      Br  0.47680215  0.59743424  0.91579879    -0.01500
Br608      Br  0.37736512  0.52472556  0.92247384    -0.01500
C609        C  0.48639605  0.22313336  0.78112124    -0.02600
C610        C  0.52572412  0.24609368  0.79684796     0.07000
C611        C  0.56442072  0.26832630  0.78010832    -0.02800
C612        C  0.56260688  0.27001519  0.74845396    -0.02800
C613        C  0.52183809  0.25027106  0.73279479     0.07200
C614        C  0.48397685  0.22624584  0.74940040    -0.03000
Br615      Br  0.42613591  0.20122761  0.72921759    -0.01500
Br616      Br  0.43397512  0.18900120  0.80245707    -0.01600
Br617      Br  0.61710654  0.29901638  0.72702700    -0.01500
Br618      Br  0.62137714  0.29557415  0.80011212    -0.01500
C619        C  0.54512251  0.11812197  0.93396337    -0.02600
C620        C  0.50195434  0.11145412  0.95181685     0.07000
C621        C  0.45956595  0.14090963  0.94529255    -0.02800
C622        C  0.45888582  0.17285785  0.92013259    -0.02800
C623        C  0.50351906  0.18541433  0.90493833     0.07200
C624        C  0.54582652  0.15451907  0.91076618    -0.03000
Br625      Br  0.60416442  0.15726213  0.88529620    -0.01500
Br626      Br  0.60422468  0.07788325  0.94055599    -0.01600
Br627      Br  0.39478059  0.18211791  0.90191287    -0.01500
Br628      Br  0.40199129  0.14163610  0.97159414    -0.01500
C629        C  0.43962699  0.39832735  0.84831875    -0.02600
C630        C  0.43045896  0.34716607  0.85507757     0.07000
C631        C  0.38038426  0.33350309  0.85910033    -0.02800
C632        C  0.34319542  0.36930841  0.86536926    -0.02800
C633        C  0.35413258  0.42145847  0.86419130     0.07200
C634        C  0.40277782  0.43513159  0.85427363    -0.03000
Br635      Br  0.42319556  0.50381995  0.84940507    -0.01500
Br636      Br  0.49859961  0.42065178  0.82710745    -0.01600
Br637      Br  0.27607918  0.34399760  0.87064974    -0.01500
Br638      Br  0.36044561  0.26696475  0.84811566    -0.01500
C639        C  0.58159069  0.39033966  0.88417378    -0.02600
C640        C  0.59724191  0.34173527  0.87697905     0.07000
C641        C  0.64842412  0.33151289  0.87468618    -0.02800
C642        C  0.68287833  0.37078302  0.87595511    -0.02800
C643        C  0.66604278  0.42112220  0.87778374     0.07200
C644        C  0.61457451  0.43042342  0.88133680    -0.03000
Br645      Br  0.58645599  0.49657607  0.88100378    -0.01500
Br646      Br  0.51861776  0.40071689  0.90409076    -0.01600
Br647      Br  0.75254752  0.35445961  0.87149864    -0.01500
Br648      Br  0.67201797  0.26383247  0.87027184    -0.01500
loop_ 
_geom_bond_atom_site_label_1 
_geom_bond_atom_site_label_2 
_geom_bond_distance 
_geom_bond_site_symmetry_2 
_ccdc_geom_bond_type 
C1            C2   1.557       .  S
C1            C7   1.534       .  S
C1            C5   1.540       .  S
C1          C299   1.552       .  S
C2            H9   1.079       .  S
C2            C3   1.381       .  D
C3            C4   1.543       .  S
C3          C306   1.528       .  S
C4            C8   1.550       .  S
C4            C6   1.535       .  S
C4           H10   1.090       .  S
C5           H11   1.086       .  S
C5            C6   1.364       .  D
C6          C286   1.499       .  S
C7           H12   1.087       .  S
C7            C8   1.357       .  D
C8          C316   1.483       .  S
C13          C14   1.526       .  S
C13          C19   1.553       .  S
C13          C17   1.553       .  S
C13         C266   1.558       .  S
C14          H21   1.087       .  S
C14          C15   1.357       .  D
C15          C16   1.553       .  S
C15         C276   1.486       .  S
C16          C20   1.550       .  S
C16          C18   1.540       .  S
C16          H22   1.103       .  S
C17          H23   1.085       .  S
C17          C18   1.367       .  D
C18         C256   1.504       .  S
C19          H24   1.073       .  S
C19          C20   1.378       .  D
C20         C309   1.527       .  S
C25          C26   1.528       .  S
C25          C31   1.548       .  S
C25          C29   1.555       .  S
C25         C236   1.557       .  S
C26          H33   1.086       .  S
C26          C27   1.362       .  D
C27          C28   1.542       .  S
C27         C319   1.493       .  S
C28          C32   1.545       .  S
C28          C30   1.550       .  S
C28          H34   1.109       .  S
C29          H35   1.083       .  S
C29          C30   1.375       .  D
C30         C226   1.520       .  S
C31          H36   1.085       .  S
C31          C32   1.368       .  D
C32         C249   1.499       .  S
C37          C38   1.532       .  S
C37          C43   1.533       .  S
C37          C41   1.559       .  S
C37         C219   1.552       .  S
C38          H45   1.087       .  S
C38          C39   1.361       .  D
C39          C40   1.541       .  S
C39         C246   1.497       .  S
C40          C44   1.546       .  S
C40          C42   1.553       .  S
C40          H46   1.105       .  S
C41          H47   1.084       .  S
C41          C42   1.386       .  D
C42         C206   1.527       .  S
C43          H48   1.086       .  S
C43          C44   1.352       .  D
C44         C279   1.484       .  S
C49          C50   1.542       .  S
C49          C55   1.548       .  S
C49          C53   1.542       .  S
C49         C176   1.552       .  S
C50          H57   1.083       .  S
C50          C51   1.359       .  D
C51          C52   1.546       .  S
C51         C199   1.500       .  S
C52          C56   1.560       .  S
C52          C54   1.537       .  S
C52          H58   1.096       .  S
C53          H59   1.086       .  S
C53          C54   1.366       .  D
C54         C289   1.497       .  S
C55          H60   1.079       .  S
C55          C56   1.380       .  D
C56         C186   1.534       .  S
C61          C62   1.550       .  S
C61          C67   1.533       .  S
C61          C65   1.544       .  S
C61         C156   1.550       .  S
C62          H69   1.082       .  S
C62          C63   1.381       .  D
C63          C64   1.555       .  S
C63         C189   1.531       .  S
C64          C68   1.549       .  S
C64          C66   1.535       .  S
C64          H70   1.097       .  S
C65          H71   1.092       .  S
C65          C66   1.354       .  D
C66         C259   1.490       .  S
C67          H72   1.086       .  S
C67          C68   1.358       .  D
C68         C166   1.490       .  S
C73          C74   1.535       .  S
C73          C79   1.539       .  S
C73          C77   1.560       .  S
C73         C136   1.568       .  S
C74          H81   1.086       .  S
C74          C75   1.367       .  D
C75          C76   1.549       .  S
C75         C149   1.502       .  S
C76          C80   1.544       .  S
C76          C78   1.555       .  S
C76          H82   1.109       .  S
C77          H83   1.085       .  S
C77          C78   1.382       .  D
C78         C229   1.527       .  S
C79          H84   1.083       .  S
C79          C80   1.362       .  D
C80         C196   1.501       .  S
C85          C86   1.543       .  S
C85          C91   1.547       .  S
C85          C89   1.547       .  S
C85         C126   1.560       .  S
C86          H93   1.082       .  S
C86          C87   1.362       .  D
C87          C88   1.542       .  S
C87         C169   1.489       .  S
C88          C92   1.539       .  S
C88          C90   1.548       .  S
C88          H94   1.107       .  S
C89          H95   1.085       .  S
C89          C90   1.380       .  D
C90         C209   1.522       .  S
C91          H96   1.085       .  S
C91          C92   1.365       .  D
C92         C146   1.500       .  S
O97         V105   1.910   1_655  S
O97         C107   1.266       .  A
O98         V429   1.898       .  S
O98         C108   1.266       .  A
O99         V429   1.891   1_655  S
O99         C109   1.262       .  A
O100        V105   1.892       .  S
O100        C110   1.262       .  A
O101        V106   1.907       .  S
O101        C110   1.265       .  A
O102        V430   1.908   1_655  S
O102        C109   1.266       .  A
O103        V430   1.911       .  S
O103        C108   1.265       .  A
O104        V106   1.913   1_655  S
O104        C107   1.267       .  A
V105        O422   1.897   1_554  S
V105        O423   1.893   1_454  S
V105        V106   2.087       .  T
V106        O426   1.908   1_454  S
V106        O427   1.910   1_554  S
C107        C139   1.496       .  S
C108        C269   1.487       .  S
C109        C239   1.479       .  S
C110        C159   1.473       .  S
O111        V443   1.899   1_565  S
O111        C121   1.265       .  A
O112        V119   1.892       .  S
O112        C122   1.265       .  A
O113        V119   1.907   1_565  S
O113        C123   1.267       .  A
O114        V443   1.901       .  S
O114        C124   1.264       .  A
O115        V444   1.897       .  S
O115        C124   1.266       .  A
O116        V120   1.906   1_565  S
O116        C123   1.266       .  A
O117        V120   1.896       .  S
O117        C122   1.262       .  A
O118        V444   1.898   1_565  S
O118        C121   1.263       .  A
V119        O435   1.899   1_544  S
V119        O438   1.904   1_554  S
V119        V120   2.074       .  T
V120        O439   1.897   1_554  S
V120        O442   1.897   1_544  S
C121        C216   1.474       .  S
C122        C179   1.478       .  S
C123        C129   1.503       .  S
C124        C296   1.495       .  S
C125        C126   1.421       .  A
C125        C130   1.416       .  A
C125       Br132   1.932       .  S
C126        C127   1.420       .  A
C127        C128   1.412       .  A
C127       Br134   1.930       .  S
C128        C129   1.416       .  A
C128       Br133   1.935       .  S
C129        C130   1.418       .  A
C130       Br131   1.937       .  S
C135        C136   1.431       .  A
C135        C140   1.412       .  A
C135       Br142   1.938       .  S
C136        C137   1.425       .  A
C137        C138   1.420       .  A
C137       Br144   1.922       .  S
C138        C139   1.412       .  A
C138       Br143   1.933       .  S
C139        C140   1.407       .  A
C140       Br141   1.934       .  S
C145        C146   1.415       .  A
C145        C150   1.414       .  A
C145       Br152   1.935       .  S
C146        C147   1.411       .  A
C147        C148   1.408       .  A
C147       Br154   1.919       .  S
C148        C149   1.409       .  A
C148       Br153   1.922       .  S
C149        C150   1.419       .  A
C150       Br151   1.930       .  S
C155        C156   1.430       .  A
C155        C160   1.404       .  A
C155       Br162   1.934       .  S
C156        C157   1.428       .  A
C157        C158   1.409       .  A
C157       Br164   1.935       .  S
C158        C159   1.405       .  A
C158       Br163   1.930       .  S
C159        C160   1.399       .  A
C160       Br161   1.929       .  S
C165        C166   1.408       .  A
C165        C170   1.408       .  A
C165       Br172   1.920       .  S
C166        C167   1.411       .  A
C167        C168   1.407       .  A
C167       Br174   1.930       .  S
C168        C169   1.407       .  A
C168       Br173   1.918       .  S
C169        C170   1.415       .  A
C170       Br171   1.933       .  S
C175        C176   1.418       .  A
C175        C180   1.397       .  A
C175       Br182   1.919       .  S
C176        C177   1.424       .  A
C177        C178   1.413       .  A
C177       Br184   1.922       .  S
C178        C179   1.411       .  A
C178       Br183   1.936       .  S
C179        C180   1.403       .  A
C180       Br181   1.935       .  S
C185        C186   1.408       .  A
C185        C190   1.405       .  A
C185       Br192   1.932       .  S
C186        C187   1.422       .  A
C187        C188   1.422       .  A
C187       Br194   1.930       .  S
C188        C189   1.433       .  A
C188       Br193   1.947       .  S
C189        C190   1.429       .  A
C190       Br191   1.929       .  S
C195        C196   1.416       .  A
C195        C200   1.407       .  A
C195       Br202   1.941       .  S
C196        C197   1.415       .  A
C197        C198   1.411       .  A
C197       Br204   1.920       .  S
C198        C199   1.408       .  A
C198       Br203   1.924       .  S
C199        C200   1.415       .  A
C200       Br201   1.924       .  S
C205        C206   1.423       .  A
C205        C210   1.416       .  A
C205       Br212   1.929       .  S
C206        C207   1.419       .  A
C207        C208   1.416       .  A
C207       Br214   1.927       .  S
C208        C209   1.420       .  A
C208       Br213   1.935       .  S
C209        C210   1.422       .  A
C210       Br211   1.930       .  S
C215        C216   1.401       .  A
C215        C220   1.407       .  A
C215       Br222   1.935       .  S
C216        C217   1.403       .  A
C217        C218   1.409       .  A
C217       Br224   1.933       .  S
C218        C219   1.422       .  A
C218       Br223   1.917       .  S
C219        C220   1.434       .  A
C220       Br221   1.941       .  S
C225        C226   1.412       .  A
C225        C230   1.414       .  A
C225       Br232   1.922       .  S
C226        C227   1.418       .  A
C227        C228   1.423       .  A
C227       Br234   1.935       .  S
C228        C229   1.422       .  A
C228       Br233   1.924       .  S
C229        C230   1.418       .  A
C230       Br231   1.921       .  S
C235        C236   1.431       .  A
C235        C240   1.419       .  A
C235       Br242   1.932       .  S
C236        C237   1.424       .  A
C237        C238   1.399       .  A
C237       Br244   1.915       .  S
C238        C239   1.400       .  A
C238       Br567   1.941       .  S
C239        C240   1.409       .  A
C240       Br241   1.933       .  S
Br243       C562   1.940       .  S
C245        C246   1.413       .  A
C245        C250   1.408       .  A
C245       Br252   1.916       .  S
C246        C247   1.412       .  A
C247        C248   1.407       .  A
C247       Br254   1.933       .  S
C248        C249   1.416       .  A
C248       Br253   1.921       .  S
C249        C250   1.407       .  A
C250       Br251   1.919       .  S
C255        C256   1.412       .  A
C255        C260   1.401       .  A
C255       Br262   1.902       .  S
C256        C257   1.415       .  A
C257        C258   1.413       .  A
C257       Br264   1.916       .  S
C258        C259   1.410       .  A
C258       Br263   1.925       .  S
C259        C260   1.400       .  A
C260       Br261   1.920       .  S
C265        C266   1.428       .  A
C265        C270   1.409       .  A
C265       Br272   1.927       .  S
C266        C267   1.429       .  A
C267        C268   1.414       .  A
C267       Br274   1.935       .  S
C268        C269   1.407       .  A
C268       Br597   1.933       .  S
C269        C270   1.405       .  A
C270       Br271   1.939       .  S
Br273       C592   1.932       .  S
C275        C276   1.407       .  A
C275        C280   1.407       .  A
C275       Br282   1.917       .  S
C276        C277   1.411       .  A
C277        C278   1.407       .  A
C277       Br284   1.932       .  S
C278        C279   1.406       .  A
C278       Br283   1.921       .  S
C279        C280   1.413       .  A
C280       Br281   1.935       .  S
C285        C286   1.415       .  A
C285        C290   1.412       .  A
C285       Br292   1.929       .  S
C286        C287   1.412       .  A
C287        C288   1.407       .  A
C287       Br294   1.923       .  S
C288        C289   1.408       .  A
C288       Br293   1.914       .  S
C289        C290   1.412       .  A
C290       Br291   1.924       .  S
C295        C296   1.417       .  A
C295        C300   1.413       .  A
C295       Br302   1.938       .  S
C296        C297   1.413       .  A
C297        C298   1.403       .  A
C297       Br304   1.938       .  S
C298        C299   1.417       .  A
C298       Br303   1.923       .  S
C299        C300   1.426       .  A
C300       Br301   1.933       .  S
C305        C306   1.422       .  A
C305        C310   1.419       .  A
C305       Br312   1.938       .  S
C306        C307   1.409       .  A
C307        C308   1.409       .  A
C307       Br314   1.927       .  S
C308        C309   1.429       .  A
C308       Br313   1.947       .  S
C309        C310   1.430       .  A
C310       Br311   1.932       .  S
C315        C316   1.400       .  A
C315        C320   1.400       .  A
C315       Br322   1.928       .  S
C316        C317   1.407       .  A
C317        C318   1.407       .  A
C317       Br324   1.926       .  S
C318        C319   1.421       .  A
C318       Br323   1.934       .  S
C319        C320   1.415       .  A
C320       Br321   1.920       .  S
C325        C326   1.558       .  S
C325        C331   1.534       .  S
C325        C329   1.539       .  S
C325        C623   1.554       .  S
C326        H333   1.080       .  S
C326        C327   1.382       .  D
C327        C328   1.542       .  S
C327        C630   1.528       .  S
C328        C332   1.550       .  S
C328        C330   1.535       .  S
C328        H334   1.090       .  S
C329        H335   1.086       .  S
C329        C330   1.363       .  D
C330        C610   1.499       .  S
C331        H336   1.086       .  S
C331        C332   1.358       .  D
C332        C640   1.485       .  S
C337        C338   1.526       .  S
C337        C343   1.553       .  S
C337        C341   1.554       .  S
C337        C590   1.558       .  S
C338        H345   1.087       .  S
C338        C339   1.356       .  D
C339        C340   1.552       .  S
C339        C600   1.484       .  S
C340        C344   1.550       .  S
C340        C342   1.540       .  S
C340        H346   1.103       .  S
C341        H347   1.085       .  S
C341        C342   1.368       .  D
C342        C580   1.505       .  S
C343        H348   1.074       .  S
C343        C344   1.377       .  D
C344        C633   1.526       .  S
C349        C350   1.529       .  S
C349        C355   1.548       .  S
C349        C353   1.555       .  S
C349        C560   1.557       .  S
C350        H357   1.086       .  S
C350        C351   1.362       .  D
C351        C352   1.543       .  S
C351        C643   1.494       .  S
C352        C356   1.545       .  S
C352        C354   1.550       .  S
C352        H358   1.109       .  S
C353        H359   1.082       .  S
C353        C354   1.375       .  D
C354        C550   1.521       .  S
C355        H360   1.085       .  S
C355        C356   1.368       .  D
C356        C573   1.499       .  S
C361        C362   1.532       .  S
C361        C367   1.532       .  S
C361        C365   1.559       .  S
C361        C543   1.550       .  S
C362        H369   1.086       .  S
C362        C363   1.360       .  D
C363        C364   1.540       .  S
C363        C570   1.497       .  S
C364        C368   1.544       .  S
C364        C366   1.553       .  S
C364        H370   1.105       .  S
C365        H371   1.083       .  S
C365        C366   1.386       .  D
C366        C530   1.524       .  S
C367        H372   1.086       .  S
C367        C368   1.351       .  D
C368        C603   1.481       .  S
C373        C374   1.542       .  S
C373        C379   1.548       .  S
C373        C377   1.542       .  S
C373        C500   1.551       .  S
C374        H381   1.083       .  S
C374        C375   1.359       .  D
C375        C376   1.546       .  S
C375        C523   1.500       .  S
C376        C380   1.561       .  S
C376        C378   1.538       .  S
C376        H382   1.096       .  S
C377        H383   1.086       .  S
C377        C378   1.366       .  D
C378        C613   1.498       .  S
C379        H384   1.078       .  S
C379        C380   1.380       .  D
C380        C510   1.535       .  S
C385        C386   1.550       .  S
C385        C391   1.532       .  S
C385        C389   1.543       .  S
C385        C480   1.547       .  S
C386        H393   1.082       .  S
C386        C387   1.380       .  D
C387        C388   1.555       .  S
C387        C513   1.532       .  S
C388        C392   1.548       .  S
C388        C390   1.534       .  S
C388        H394   1.097       .  S
C389        H395   1.092       .  S
C389        C390   1.353       .  D
C390        C583   1.487       .  S
C391        H396   1.086       .  S
C391        C392   1.358       .  D
C392        C490   1.488       .  S
C397        C398   1.535       .  S
C397        C403   1.538       .  S
C397        C401   1.561       .  S
C397        C460   1.571       .  S
C398        H405   1.086       .  S
C398        C399   1.367       .  D
C399        C400   1.549       .  S
C399        C473   1.502       .  S
C400        C404   1.542       .  S
C400        C402   1.555       .  S
C400        H406   1.109       .  S
C401        H407   1.085       .  S
C401        C402   1.383       .  D
C402        C553   1.528       .  S
C403        H408   1.083       .  S
C403        C404   1.362       .  D
C404        C520   1.500       .  S
C409        C410   1.542       .  S
C409        C415   1.548       .  S
C409        C413   1.546       .  S
C409        C450   1.558       .  S
C410        H417   1.083       .  S
C410        C411   1.361       .  D
C411        C412   1.543       .  S
C411        C493   1.488       .  S
C412        C416   1.539       .  S
C412        C414   1.548       .  S
C412        H418   1.107       .  S
C413        H419   1.085       .  S
C413        C414   1.378       .  D
C414        C533   1.521       .  S
C415        H420   1.085       .  S
C415        C416   1.366       .  D
C416        C470   1.501       .  S
O421        V429   1.912   1_655  S
O421        C431   1.267       .  A
O422        C432   1.266       .  A
O423        C433   1.262       .  A
O424        V429   1.890       .  S
O424        C434   1.261       .  A
O425        V430   1.907       .  S
O425        C434   1.265       .  A
O426        C433   1.266       .  A
O427        C432   1.265       .  A
O428        V430   1.915   1_655  S
O428        C431   1.268       .  A
V429        V430   2.087       .  T
C431        C463   1.499       .  S
C432        C593   1.485       .  S
C433        C563   1.481       .  S
C434        C483   1.471       .  S
O435        C445   1.265       .  A
O436        V443   1.893       .  S
O436        C446   1.265       .  A
O437        V443   1.903   1_565  S
O437        C447   1.266       .  A
O438        C448   1.265       .  A
O439        C448   1.265       .  A
O440        V444   1.906   1_565  S
O440        C447   1.267       .  A
O441        V444   1.896       .  S
O441        C446   1.262       .  A
O442        C445   1.263       .  A
V443        V444   2.073       .  T
C445        C540   1.473       .  S
C446        C503   1.478       .  S
C447        C453   1.501       .  S
C448        C620   1.496       .  S
C449        C450   1.421       .  A
C449        C454   1.415       .  A
C449       Br456   1.933       .  S
C450        C451   1.421       .  A
C451        C452   1.411       .  A
C451       Br458   1.929       .  S
C452        C453   1.416       .  A
C452       Br457   1.936       .  S
C453        C454   1.419       .  A
C454       Br455   1.937       .  S
C459        C460   1.433       .  A
C459        C464   1.413       .  A
C459       Br466   1.938       .  S
C460        C461   1.426       .  A
C461        C462   1.421       .  A
C461       Br468   1.922       .  S
C462        C463   1.412       .  A
C462       Br467   1.933       .  S
C463        C464   1.407       .  A
C464       Br465   1.935       .  S
C469        C470   1.415       .  A
C469        C474   1.414       .  A
C469       Br476   1.935       .  S
C470        C471   1.412       .  A
C471        C472   1.408       .  A
C471       Br478   1.917       .  S
C472        C473   1.408       .  A
C472       Br477   1.923       .  S
C473        C474   1.419       .  A
C474       Br475   1.930       .  S
C479        C480   1.429       .  A
C479        C484   1.403       .  A
C479       Br486   1.934       .  S
C480        C481   1.427       .  A
C481        C482   1.408       .  A
C481       Br488   1.935       .  S
C482        C483   1.405       .  A
C482       Br487   1.930       .  S
C483        C484   1.398       .  A
C484       Br485   1.929       .  S
C489        C490   1.408       .  A
C489        C494   1.408       .  A
C489       Br496   1.920       .  S
C490        C491   1.411       .  A
C491        C492   1.407       .  A
C491       Br498   1.929       .  S
C492        C493   1.406       .  A
C492       Br497   1.918       .  S
C493        C494   1.415       .  A
C494       Br495   1.933       .  S
C499        C500   1.418       .  A
C499        C504   1.397       .  A
C499       Br506   1.917       .  S
C500        C501   1.423       .  A
C501        C502   1.414       .  A
C501       Br508   1.922       .  S
C502        C503   1.411       .  A
C502       Br507   1.936       .  S
C503        C504   1.403       .  A
C504       Br505   1.935       .  S
C509        C510   1.408       .  A
C509        C514   1.405       .  A
C509       Br516   1.932       .  S
C510        C511   1.422       .  A
C511        C512   1.423       .  A
C511       Br518   1.931       .  S
C512        C513   1.433       .  A
C512       Br517   1.947       .  S
C513        C514   1.428       .  A
C514       Br515   1.929       .  S
C519        C520   1.415       .  A
C519        C524   1.406       .  A
C519       Br526   1.942       .  S
C520        C521   1.415       .  A
C521        C522   1.411       .  A
C521       Br528   1.921       .  S
C522        C523   1.408       .  A
C522       Br527   1.924       .  S
C523        C524   1.415       .  A
C524       Br525   1.923       .  S
C529        C530   1.422       .  A
C529        C534   1.415       .  A
C529       Br536   1.929       .  S
C530        C531   1.418       .  A
C531        C532   1.415       .  A
C531       Br538   1.929       .  S
C532        C533   1.420       .  A
C532       Br537   1.935       .  S
C533        C534   1.422       .  A
C534       Br535   1.930       .  S
C539        C540   1.399       .  A
C539        C544   1.405       .  A
C539       Br546   1.935   1_556  S
C540        C541   1.403       .  A
C541        C542   1.409       .  A
C541       Br548   1.931       .  S
C542        C543   1.423       .  A
C542       Br547   1.919       .  S
C543        C544   1.436       .  A
C544       Br545   1.942       .  S
C549        C550   1.413       .  A
C549        C554   1.415       .  A
C549       Br556   1.922       .  S
C550        C551   1.419       .  A
C551        C552   1.423       .  A
C551       Br558   1.935       .  S
C552        C553   1.421       .  A
C552       Br557   1.924       .  S
C553        C554   1.418       .  A
C554       Br555   1.921       .  S
C559        C560   1.431       .  A
C559        C564   1.419       .  A
C559       Br566   1.932       .  S
C560        C561   1.424       .  A
C561        C562   1.400       .  A
C561       Br568   1.915       .  S
C562        C563   1.401       .  A
C563        C564   1.409       .  A
C564       Br565   1.933       .  S
C569        C570   1.412       .  A
C569        C574   1.407       .  A
C569       Br576   1.917       .  S
C570        C571   1.413       .  A
C571        C572   1.407       .  A
C571       Br578   1.932       .  S
C572        C573   1.415       .  A
C572       Br577   1.920       .  S
C573        C574   1.407       .  A
C574       Br575   1.918       .  S
C579        C580   1.413       .  A
C579        C584   1.400       .  A
C579       Br586   1.901       .  S
C580        C581   1.416       .  A
C581        C582   1.413       .  A
C581       Br588   1.915       .  S
C582        C583   1.409       .  A
C582       Br587   1.925       .  S
C583        C584   1.398       .  A
C584       Br585   1.920       .  S
C589        C590   1.429       .  A
C589        C594   1.409       .  A
C589       Br596   1.926       .  S
C590        C591   1.429       .  A
C591        C592   1.413       .  A
C591       Br598   1.936       .  S
C592        C593   1.407       .  A
C593        C594   1.404       .  A
C594       Br595   1.940       .  S
C599        C600   1.406       .  A
C599        C604   1.406       .  A
C599       Br606   1.917       .  S
C600        C601   1.411       .  A
C601        C602   1.406       .  A
C601       Br608   1.932       .  S
C602        C603   1.406       .  A
C602       Br607   1.922       .  S
C603        C604   1.413       .  A
C604       Br605   1.935       .  S
C609        C610   1.416       .  A
C609        C614   1.412       .  A
C609       Br616   1.929       .  S
C610        C611   1.411       .  A
C611        C612   1.407       .  A
C611       Br618   1.925       .  S
C612        C613   1.409       .  A
C612       Br617   1.912       .  S
C613        C614   1.412       .  A
C614       Br615   1.925       .  S
C619        C620   1.416       .  A
C619        C624   1.414       .  A
C619       Br626   1.938       .  S
C620        C621   1.413       .  A
C621        C622   1.404       .  A
C621       Br628   1.937       .  S
C622        C623   1.417       .  A
C622       Br627   1.924       .  S
C623        C624   1.427       .  A
C624       Br625   1.934       .  S
C629        C630   1.423       .  A
C629        C634   1.418       .  A
C629       Br636   1.939       .  S
C630        C631   1.410       .  A
C631        C632   1.409       .  A
C631       Br638   1.928       .  S
C632        C633   1.428       .  A
C632       Br637   1.947       .  S
C633        C634   1.430       .  A
C634       Br635   1.932       .  S
C639        C640   1.402       .  A
C639        C644   1.402       .  A
C639       Br646   1.929       .  S
C640        C641   1.407       .  A
C641        C642   1.407       .  A
C641       Br648   1.926       .  S
C642        C643   1.421       .  A
C642       Br647   1.933       .  S
C643        C644   1.415       .  A
C644       Br645   1.920       .  S
