geometry optimzed in LAMMPS
_audit_creation_date              2020-11-30 
_audit_creation_method            'lammps2cif' 
_symmetry_space_group_name_H-M    'P1' 
_symmetry_Int_Tables_number       1 
_symmetry_cell_setting            triclinic 
loop_ 
_symmetry_equiv_pos_as_xyz 
  x,y,z 
_cell_length_a                    26.50800532 
_cell_length_b                    26.518799995943734 
_cell_length_c                    22.69418187678481 
_cell_angle_alpha                 90.04116673395288 
_cell_angle_beta                  90.05117085780563 
_cell_angle_gamma                 120.134812614944 
loop_ 
_atom_site_label 
_atom_site_type_symbol 
_atom_site_fract_x 
_atom_site_fract_y 
_atom_site_fract_z 
_atom_site_charge 
N1          N  0.80298922  0.08284336  0.30648390    -0.27400
N2          N  0.80634886  0.10586357  0.25402814    -0.35300
C3          C  0.86241665  0.13461693  0.23635273     0.00900
C4          C  0.89752066  0.12995346  0.27940143     0.06900
C5          C  0.85748153  0.09653790  0.32339207    -0.06100
H6          H  0.87661105  0.15877914  0.19556924     0.07600
H7          H  0.86785551  0.08485804  0.36550460     0.08800
Cu8        Cu  0.73357743  0.09884673  0.21015925     0.44200
Cu9        Cu  0.72184462  0.03809116  0.35111186     0.42000
Cu10       Cu  0.59210423  0.98299010  0.25605033     0.43900
N11         N  0.65394693  0.08225651  0.17404918    -0.34800
N12         N  0.60281975  0.03711760  0.18823774    -0.29100
C13         C  0.56014737  0.03826285  0.15726884    -0.05200
C14         C  0.58553620  0.08677052  0.12194535     0.07100
C15         C  0.64503406  0.11346998  0.13320870     0.00900
H16         H  0.51433136  0.00577720  0.15989219     0.08500
H17         H  0.67942646  0.15150159  0.11139901     0.07600
N18         N  0.58944435  0.98979139  0.34489329    -0.36300
N19         N  0.63518994  0.00814840  0.38006630    -0.28400
C20         C  0.61925433  0.01640376  0.43376122    -0.03700
C21         C  0.56217891  0.00621638  0.43120053     0.04900
C22         C  0.54471228  0.98874925  0.37411181     0.03000
H23         H  0.64870348  0.03310016  0.47097142     0.08100
H24         H  0.50383021  0.97931075  0.35410136     0.07000
N25         N  0.36570423  0.49521889  0.18848819    -0.27400
N26         N  0.35321110  0.44425034  0.16594392    -0.35300
C27         C  0.39169758  0.45382247  0.12316279     0.00900
C28         C  0.43012752  0.51352982  0.11844923     0.06900
C29         C  0.41237117  0.53847744  0.16074022    -0.06100
H30         H  0.39169322  0.41974751  0.09686498     0.07600
H31         H  0.43211479  0.58435969  0.17122056     0.08800
Cu32       Cu  0.28822398  0.36255025  0.19626147     0.44200
Cu33       Cu  0.33015314  0.50245793  0.26516007     0.42000
Cu34       Cu  0.28820529  0.36568313  0.34740390     0.43900
N35         N  0.23467322  0.28684979  0.24430269    -0.34800
N36         N  0.23619469  0.28758424  0.30235796    -0.29100
C37         C  0.20277635  0.23270860  0.32259984    -0.05200
C38         C  0.17821343  0.19479764  0.27482430     0.07100
C39         C  0.19950069  0.23163342  0.22589208     0.00900
H40         H  0.19807663  0.22117582  0.36873311     0.08500
H41         H  0.19212312  0.21872196  0.18004129     0.07600
N42         N  0.34648823  0.45066144  0.37569363    -0.36300
N43         N  0.35854768  0.49912539  0.34767601    -0.28400
C44         C  0.39946717  0.54542786  0.37755339    -0.03700
C45         C  0.41461122  0.52568287  0.42687563     0.04900
C46         C  0.37918886  0.46523875  0.42463588     0.03000
H47         H  0.41648480  0.59036266  0.36459790     0.08100
H48         H  0.37521117  0.43366270  0.45706704     0.07000
C49         C  0.59943942  0.15274416  0.98050386     0.86400
C50         C  0.54009215  0.14837122  0.96821113    -0.53900
C51         C  0.50968422  0.14535042  0.01864757     0.09300
C52         C  0.54355814  0.14869011  0.07606966     0.20200
C53         C  0.63235462  0.20618291  0.02051468    -0.54600
C54         C  0.60305358  0.20433152  0.07037423     0.09400
C55         C  0.58375247  0.09993206  0.01927188    -0.54100
C56         C  0.55921272  0.10004555  0.07166929     0.10000
H57         H  0.52342105  0.14663580  0.92413931     0.14500
H58         H  0.52020539  0.14636126  0.11741721     0.00200
H59         H  0.67578119  0.24194673  0.01052244     0.14800
H60         H  0.60132045  0.07124550  0.01147765     0.14600
C61         C  0.49859895  0.50108191  0.98778387     0.86400
C62         C  0.54960853  0.56264477  0.97372776    -0.53900
C63         C  0.57177185  0.59773219  0.02284319     0.09300
C64         C  0.54024656  0.56655509  0.08096990     0.20200
C65         C  0.52314343  0.47713130  0.03473626    -0.54600
C66         C  0.54665770  0.51251483  0.08263113     0.09400
C67         C  0.45519345  0.51339584  0.01899512    -0.54100
C68         C  0.47388715  0.54165329  0.07111016     0.10000
H69         H  0.56706425  0.57667944  0.92976938     0.14500
H70         H  0.55713650  0.59407445  0.12104478     0.00200
H71         H  0.52528631  0.43761917  0.02855579     0.14800
H72         H  0.40932670  0.49166011  0.00680233     0.14600
N73         N  0.64123518  0.32104469  0.17478311    -0.27400
N74         N  0.69358611  0.32935207  0.16248142    -0.35300
C75         C  0.68772574  0.28621702  0.12700893     0.00900
C76         C  0.62893473  0.24916248  0.11656780     0.06900
C77         C  0.60064021  0.27188516  0.14831541    -0.06100
H78         H  0.72373272  0.28526383  0.10566757     0.07600
H79         H  0.55487570  0.25859938  0.14528647     0.08800
Cu80       Cu  0.77035249  0.40704552  0.17659302     0.44200
Cu81       Cu  0.62787643  0.38762413  0.20058150     0.42000
Cu82       Cu  0.75095863  0.53087218  0.16576187     0.43900
N83         N  0.83933125  0.49045642  0.16330349    -0.34800
N84         N  0.83200124  0.53585969  0.15626555    -0.29100
C85         C  0.88081559  0.57958927  0.13220317    -0.05200
C86         C  0.92079576  0.56090250  0.12419452     0.07100
C87         C  0.89305466  0.50433771  0.14490832     0.00900
H88         H  0.88472184  0.61979953  0.11608700     0.08500
H89         H  0.90759876  0.47312286  0.13922387     0.07600
N90         N  0.66342517  0.50951051  0.16186666    -0.36300
N91         N  0.61921159  0.45716508  0.17455538    -0.28400
C92         C  0.56966368  0.45214922  0.15298138    -0.03700
C93         C  0.58275166  0.50404774  0.12643389     0.04900
C94         C  0.64248025  0.53962806  0.13319293     0.03000
H95         H  0.52843826  0.41165504  0.15085113     0.08100
H96         H  0.66950507  0.58119465  0.11187230     0.07000
C97         C  0.02327985  0.62987630  0.99198828     0.86400
C98         C  0.03124266  0.57705326  0.98630233    -0.53900
C99         C  0.03488833  0.55413308  0.03929042     0.09300
C100        C  0.02893250  0.58767228  0.09358119     0.20200
C101        C  0.96864877  0.60932724  0.03057292    -0.54600
C102        C  0.97090438  0.58621512  0.08329595     0.09400
C103        C  0.07483581  0.67231494  0.02965407    -0.54100
C104        C  0.07483357  0.65368125  0.08518733     0.10000
H105        H  0.03318386  0.55936368  0.94382656     0.14500
H106        H  0.03186095  0.57000867  0.13696867     0.00200
H107        H  0.93070242  0.61172940  0.01654090     0.14800
H108        H  0.10292479  0.71775344  0.01820963     0.14600
N109        N  0.04719001  0.28758041  0.91444661    -0.27400
N110        N  0.02972525  0.23577905  0.93808774    -0.35300
C111        C  0.03101741  0.20059859  0.89499718     0.00900
C112        C  0.05058561  0.23139448  0.84131722     0.06900
C113        C  0.06159822  0.28697872  0.85731711    -0.06100
H114        H  0.02149510  0.15642464  0.90272995     0.07600
H115        H  0.08175845  0.32557394  0.83018428     0.08800
Cu116      Cu  0.01208233  0.22100761  0.03196121     0.44200
Cu117      Cu  0.05080048  0.35829942  0.96155794     0.42000
Cu118      Cu  0.03567517  0.35044966  0.11987624     0.43900
N119        N  0.00489467  0.22305614  0.12732841    -0.34800
N120        N  0.01714362  0.27067443  0.15761750    -0.29100
C121        C  0.00923621  0.25811254  0.21583896    -0.05200
C122        C  0.98939986  0.19907521  0.22446633     0.07100
C123        C  0.98747842  0.17878664  0.16661573     0.00900
H124        H  0.01537171  0.28987364  0.24890905     0.08500
H125        H  0.97264990  0.13406998  0.15421139     0.07600
N126        N  0.04203944  0.42073408  0.07125572    -0.36300
N127        N  0.04709247  0.42292742  0.01319550    -0.28400
C128        C  0.04656342  0.47070895  0.99383912    -0.03700
C129        C  0.04084036  0.50058426  0.04166366     0.04900
C130        C  0.03821721  0.46722902  0.09012526     0.03000
H131        H  0.04898460  0.48208820  0.94780064     0.08100
H132        H  0.03220920  0.47518971  0.13562286     0.07000
N133        N  0.20631256  0.08383199  0.90118633    -0.27400
N134        N  0.15786115  0.06879721  0.93114989    -0.35300
C135        C  0.11362597  0.05109078  0.89161615     0.00900
C136        C  0.13446113  0.05522059  0.83373047     0.06900
C137        C  0.19406619  0.07714514  0.84268173    -0.06100
H138        H  0.06860109  0.03465590  0.90383685     0.07600
H139        H  0.22648065  0.08601781  0.80947906     0.08800
Cu140      Cu  0.15455565  0.07291997  0.02648998     0.44200
Cu141      Cu  0.28757573  0.10723725  0.94077024     0.42000
Cu142      Cu  0.29343530  0.11749240  0.09968921     0.43900
N143        N  0.16740048  0.08782192  0.12070508    -0.34800
N144        N  0.21906099  0.10618072  0.14530130    -0.29100
C145        C  0.21703724  0.11931919  0.20246164    -0.05200
C146        C  0.16087558  0.10714926  0.21740353     0.07100
C147        C  0.13099182  0.08764426  0.16319389     0.00900
H148        H  0.25545440  0.14113242  0.22989946     0.08500
H149        H  0.08696509  0.07820269  0.15446743     0.07600
N150        N  0.36388884  0.12675682  0.04822178    -0.36300
N151        N  0.36216234  0.12352000  0.98999107    -0.28400
C152        C  0.41347138  0.13035543  0.97043028    -0.03700
C153        C  0.44956291  0.13819279  0.01847880     0.04900
C154        C  0.41616596  0.13561848  0.06695568     0.03000
H155        H  0.42342379  0.12877923  0.92449605     0.08100
H156        H  0.42863570  0.13936517  0.11281734     0.07000
N157        N  0.70040739  0.74249688  0.99223660    -0.27400
N158        N  0.70214977  0.74092103  0.05043544    -0.35300
C159        C  0.65675790  0.69039711  0.06969982     0.00900
C160        C  0.62434922  0.65778422  0.02162681     0.06900
C161        C  0.65365230  0.69242877  0.97313341    -0.06100
H162        H  0.64876446  0.67799209  0.11559741     0.07600
H163        H  0.64187226  0.68196362  0.92726702     0.08800
Cu164      Cu  0.76704583  0.80732828  0.10180111     0.44200
Cu165      Cu  0.76273413  0.81473622  0.94298625     0.42000
Cu166      Cu  0.86664313  0.94427669  0.02958902     0.43900
N167        N  0.83300973  0.87830834  0.14762335    -0.34800
N168        N  0.86822110  0.92949827  0.12317789    -0.29100
C169        C  0.90561172  0.96458741  0.16558410    -0.05200
C170        C  0.89379175  0.93424962  0.21945320     0.07100
C171        C  0.84787005  0.87920250  0.20474358     0.00900
H172        H  0.94155329  0.00801804  0.15707082     0.08500
H173        H  0.82860534  0.84115539  0.23282147     0.07600
N174        N  0.85950030  0.94266566  0.93448073    -0.36300
N175        N  0.82439121  0.89489086  0.90422197    -0.28400
C176        C  0.83086365  0.90730585  0.84589843    -0.03700
C177        C  0.87078779  0.96648781  0.83722310     0.04900
C178        C  0.88792951  0.98677682  0.89525724     0.03000
H179        H  0.80651375  0.87508136  0.81266480     0.08100
H180        H  0.91878948  0.03122049  0.90783722     0.07000
C181        C  0.14252460  0.12738802  0.27472318    -0.02600
C182        C  0.96525953  0.16106743  0.28150951    -0.02600
C183        C  0.93217977  0.95187966  0.27629716    -0.02600
N184        N  0.98846564  0.84924290  0.29778185    -0.27400
N185        N  0.00882813  0.86804075  0.24446565    -0.35300
C186        C  0.99404963  0.90829113  0.22902217     0.00900
C187        C  0.96282410  0.91518420  0.27528892     0.06900
C188        C  0.96042247  0.87626342  0.31781940    -0.06100
H189        H  0.00371805  0.92998362  0.18673874     0.07600
H190        H  0.93854364  0.86684052  0.35993454     0.08800
Cu191      Cu  0.05180854  0.82979429  0.20001021     0.44200
Cu192      Cu  0.99930019  0.78551354  0.33812457     0.42000
Cu193      Cu  0.12452524  0.77169598  0.29714400     0.43900
N194        N  0.08168311  0.77182136  0.17536331    -0.34800
N195        N  0.10964615  0.75352674  0.20979227    -0.29100
C196        C  0.11224956  0.70911243  0.18383047    -0.05200
C197        C  0.08545713  0.69900873  0.12989526     0.07100
C198        C  0.06690521  0.73974948  0.12585954     0.00900
H199        H  0.12930225  0.68393660  0.20438926     0.08500
H200        H  0.04125692  0.74325710  0.09064895     0.07600
N201        N  0.06647483  0.72278121  0.36085863    -0.36300
N202        N  0.01893531  0.72514178  0.37226354    -0.28400
C203        C  0.98786725  0.68524513  0.41309088    -0.03700
C204        C  0.01763565  0.65657582  0.42913216     0.04900
C205        C  0.06674468  0.68087656  0.39377874     0.03000
H206        H  0.94861606  0.68115340  0.43181957     0.08100
H207        H  0.10210878  0.67160173  0.39488643     0.07000
N208        N  0.43396758  0.45057747  0.69505117    -0.27400
N209        N  0.38343757  0.44485352  0.67889022    -0.35300
C210        C  0.39405226  0.48532638  0.63772155     0.00900
C211        C  0.45396404  0.51807680  0.62841754     0.06900
C212        C  0.47773991  0.49434990  0.66509254    -0.06100
H213        H  0.36054784  0.48874704  0.61381805     0.07600
H214        H  0.52325697  0.50685465  0.66883266     0.08800
Cu215      Cu  0.30223579  0.38072244  0.71231736     0.44200
Cu216      Cu  0.44268587  0.40620301  0.76317480     0.42000
Cu217      Cu  0.31088100  0.33063912  0.85410613     0.43900
N218        N  0.22804221  0.31465544  0.75518465    -0.34800
N219        N  0.23063851  0.29495244  0.80790750    -0.29100
C220        C  0.17584586  0.25474941  0.82461296    -0.05200
C221        C  0.13622769  0.24855648  0.78037577     0.07100
C222        C  0.17193970  0.28774748  0.73714950     0.00900
H223        H  0.16499255  0.23302282  0.86689557     0.08500
H224        H  0.15803482  0.29759479  0.69608459     0.07600
N225        N  0.39662919  0.38655920  0.88587649    -0.36300
N226        N  0.44329049  0.41418712  0.85204400    -0.28400
C227        C  0.48734695  0.45760387  0.88241579    -0.03700
C228        C  0.46848518  0.45708783  0.93891567     0.04900
C229        C  0.41121342  0.41032456  0.93992750     0.03000
H230        H  0.52859149  0.48949580  0.86339251     0.08100
H231        H  0.38066066  0.39781591  0.97606387     0.07000
N232        N  0.04059270  0.87351034  0.79945009    -0.27400
N233        N  0.01944614  0.87104688  0.74626373    -0.35300
C234        C  0.03289676  0.92578007  0.73071468     0.00900
C235        C  0.06461557  0.96477594  0.77642548     0.06900
C236        C  0.06819892  0.92885504  0.81897668    -0.06100
H237        H  0.02291411  0.93717418  0.68825947     0.07600
H238        H  0.09112817  0.94194118  0.86058615     0.08800
Cu239      Cu  0.97890771  0.78983684  0.70074203     0.44200
Cu240      Cu  0.03236492  0.80042215  0.84102626     0.42000
Cu241      Cu  0.91551280  0.65788615  0.79507195     0.43900
N242        N  0.95023628  0.70276657  0.67273744    -0.34800
N243        N  0.92551514  0.65594538  0.70681304    -0.29100
C244        C  0.92270458  0.60986942  0.67858984    -0.05200
C245        C  0.94568040  0.62757731  0.62335221     0.07100
C246        C  0.96255067  0.68666901  0.62103176     0.00900
H247        H  0.90867870  0.56780639  0.69845784     0.08500
H248        H  0.98605538  0.71669298  0.58562027     0.07600
N249        N  0.97079853  0.67027696  0.86264107    -0.36300
N250        N  0.01506792  0.72177265  0.87710395    -0.28400
C251        C  0.04424220  0.71500790  0.92152420    -0.03700
C252        C  0.01697236  0.65614463  0.93586807     0.04900
C253        C  0.97098732  0.62913376  0.89680774     0.03000
H254        H  0.07996449  0.75146374  0.94373538     0.08100
H255        H  0.93787700  0.58343386  0.89582806     0.07000
C256        C  0.53024723  0.01743314  0.48022816     0.86400
C257        C  0.57279756  0.07095514  0.51558786    -0.53900
C258        C  0.55170521  0.07767521  0.56743813     0.09300
C259        C  0.48536827  0.03572211  0.57410433     0.20200
C260        C  0.50396481  0.96616512  0.52396395    -0.54600
C261        C  0.47926605  0.97555029  0.57227090     0.09400
C262        C  0.47963253  0.02892186  0.46641474    -0.54100
C263        C  0.45571331  0.03869993  0.51619152     0.10000
H264        H  0.61926769  0.09528734  0.50621954     0.14500
H265        H  0.46731113  0.04391350  0.61470121     0.00200
H266        H  0.50264161  0.92511568  0.51596261     0.14800
H267        H  0.46355597  0.02800864  0.42222479     0.14600
C268        C  0.00998634  0.62272241  0.48495622     0.86400
C269        C  0.95869926  0.61458899  0.52236252    -0.53900
C270        C  0.95739607  0.59468031  0.57754675     0.09300
C271        C  0.00207386  0.57339834  0.58634041     0.20200
C272        C  0.06431453  0.65559011  0.52449378    -0.54600
C273        C  0.06063210  0.62921610  0.57694314     0.10200
C274        C  0.00074109  0.56121566  0.47902113    -0.54100
C275        C  0.99641075  0.53434151  0.53209032     0.10000
H276        H  0.93195356  0.63344952  0.51138136     0.14500
H277        H  0.99830995  0.55231616  0.62961674     0.00200
H278        H  0.10321676  0.69557455  0.51126855     0.14800
H279        H  0.99964331  0.54176484  0.43662988     0.14600
N280        N  0.19269257  0.66039752  0.65169922    -0.27400
N281        N  0.19949558  0.71326408  0.64957585    -0.35300
C282        C  0.15019745  0.70935804  0.62872669     0.00900
C283        C  0.11034371  0.65125128  0.61777696     0.06900
C284        C  0.13861161  0.62142440  0.63328733    -0.06100
H285        H  0.14601250  0.74644752  0.61610990     0.07600
H286        H  0.12414279  0.57619143  0.62362788     0.08800
Cu287      Cu  0.27979635  0.78888819  0.65937691     0.44200
Cu288      Cu  0.26228467  0.64621444  0.65843963     0.42000
Cu289      Cu  0.40355848  0.77000906  0.68928257     0.43900
N290        N  0.36617969  0.85520731  0.65329578    -0.34800
N291        N  0.41101945  0.84776133  0.66427224    -0.29100
C292        C  0.45952863  0.89235802  0.64117888    -0.05200
C293        C  0.44476535  0.93015799  0.61542201     0.07100
C294        C  0.38546761  0.90572645  0.62417737     0.00900
H295        H  0.50096963  0.89383638  0.63773968     0.08500
H296        H  0.35742045  0.91965801  0.60413135     0.07600
N297        N  0.39163690  0.69176337  0.65968521    -0.36300
N298        N  0.34008780  0.64780109  0.64439139    -0.28400
C299        C  0.34793421  0.61135142  0.60958914    -0.03700
C300        C  0.40721020  0.63357443  0.60301719     0.04900
C301        C  0.43365965  0.68408506  0.63588508     0.03000
H302        H  0.31314915  0.57373791  0.58753557     0.08100
H303        H  0.47968431  0.71624074  0.63675609     0.07000
C304        C  0.44774395  0.56182684  0.47946836     0.86400
C305        C  0.46121977  0.52753513  0.52466611    -0.53900
C306        C  0.48187694  0.55536189  0.57687767     0.09300
C307        C  0.49569772  0.61921875  0.57571546     0.20200
C308        C  0.41098207  0.58278522  0.51241179    -0.54600
C309        C  0.43630838  0.61309225  0.56261702     0.09400
C310        C  0.50691271  0.61719524  0.46886163    -0.54100
C311        C  0.53281973  0.64778709  0.51958204     0.10000
H312        H  0.44588175  0.48131288  0.52046415     0.14500
H313        H  0.51588380  0.64281743  0.61728884     0.00200
H314        H  0.36812958  0.57343774  0.49764909     0.14800
H315        H  0.52609125  0.63074425  0.42542944     0.14600
N316        N  0.20325452  0.08301251  0.40204224    -0.27400
N317        N  0.16256345  0.08846889  0.43038137    -0.35300
C318        C  0.13359674  0.10205305  0.38968273     0.00900
C319        C  0.15641620  0.10477870  0.33286483     0.06900
C320        C  0.20068952  0.09227398  0.34389523    -0.06100
H321        H  0.09927321  0.11125358  0.40051031     0.07600
H322        H  0.23058573  0.09119612  0.31253926     0.08800
Cu323      Cu  0.15144232  0.07897709  0.52525245     0.44200
Cu324      Cu  0.26609044  0.06809193  0.44185191     0.42000
Cu325      Cu  0.25784125  0.04898930  0.59797809     0.43900
N326        N  0.15323124  0.06584493  0.61947510    -0.34800
N327        N  0.19073877  0.05292416  0.64393240    -0.29100
C328        C  0.17864006  0.04224246  0.70200705    -0.05200
C329        C  0.13269557  0.05102876  0.71748147     0.07100
C330        C  0.11730346  0.06489410  0.66281577     0.00900
H331        H  0.19997775  0.02598817  0.73040958     0.08500
H332        H  0.08023901  0.07062115  0.65482329     0.07600
N333        N  0.32455384  0.04960131  0.54676563    -0.36300
N334        N  0.32751426  0.05615484  0.48890306    -0.28400
C335        C  0.37437814  0.05384780  0.46878186    -0.03700
C336        C  0.40284545  0.04576170  0.51627254     0.04900
C337        C  0.36957553  0.04327736  0.56488632     0.03000
H338        H  0.38677832  0.05771618  0.42289710     0.08100
H339        H  0.37684252  0.03636885  0.61030598     0.07000
N340        N  0.98848990  0.39260421  0.50926600    -0.27400
N341        N  0.99829869  0.39885376  0.56668556    -0.35300
C342        C  0.00108057  0.44902767  0.58425243     0.00900
C343        C  0.99271069  0.47595305  0.53556457     0.06900
C344        C  0.98492712  0.43849860  0.48895605    -0.06100
H345        H  0.01022865  0.46553212  0.62891246     0.07600
H346        H  0.97818981  0.44458309  0.44311925     0.08800
Cu347      Cu  0.00997858  0.33834000  0.61614294     0.44200
Cu348      Cu  0.98352034  0.32282889  0.46015033     0.42000
Cu349      Cu  0.01563960  0.21962374  0.53287198     0.43900
N350        N  0.02341730  0.27442488  0.65623003    -0.34800
N351        N  0.02706817  0.23266316  0.62782400    -0.29100
C352        C  0.04034429  0.20335135  0.66835748    -0.05200
C353        C  0.04432529  0.22660807  0.72525884     0.07100
C354        C  0.03345679  0.27204931  0.71435257     0.00900
H355        H  0.04848724  0.16836521  0.65731564     0.08500
H356        H  0.03442747  0.30294259  0.74570300     0.07600
N357        N  0.00025565  0.21855119  0.43845055    -0.36300
N358        N  0.98612201  0.25517750  0.41415338    -0.28400
C359        C  0.97423255  0.24229259  0.35632690    -0.03700
C360        C  0.98340403  0.19665872  0.34059864     0.04900
C361        C  0.99896465  0.18235715  0.39504158     0.03000
H362        H  0.95714679  0.26309774  0.32822675     0.08100
H363        H  0.00586880  0.14601013  0.40281992     0.07000
N364        N  0.67424296  0.78123113  0.49286708    -0.27400
N365        N  0.67160095  0.78261829  0.55096787    -0.35300
C366        C  0.62105966  0.73635710  0.56920055     0.00900
C367        C  0.59020555  0.70367156  0.52036177     0.06900
C368        C  0.62554563  0.73386583  0.47272860    -0.06100
H369        H  0.60847619  0.72665817  0.61492026     0.07600
H370        H  0.61705706  0.72179892  0.42673399     0.08800
Cu371      Cu  0.73986877  0.84576360  0.60243878     0.44200
Cu372      Cu  0.74683472  0.84248855  0.44468305     0.42000
Cu373      Cu  0.87895928  0.94309621  0.52888245     0.43900
N374        N  0.81385531  0.90828432  0.64805375    -0.34800
N375        N  0.86506226  0.94367384  0.62360437    -0.29100
C376        C  0.90067037  0.97963788  0.66689563    -0.05200
C377        C  0.87086439  0.96633141  0.72140333     0.07100
C378        C  0.81554595  0.92108385  0.70584927     0.00900
H379        H  0.94413222  0.01572227  0.65879048     0.08500
H380        H  0.77713120  0.90228196  0.73338705     0.07600
N381        N  0.87573885  0.93348051  0.43317283    -0.36300
N382        N  0.82669576  0.89945744  0.40415305    -0.28400
C383        C  0.83754245  0.90255288  0.34560300    -0.03700
C384        C  0.89687143  0.93916022  0.33527564     0.04900
C385        C  0.91926430  0.95790161  0.39259213     0.03000
H386        H  0.80429392  0.87771276  0.31327443     0.08100
H387        H  0.96467983  0.98664254  0.40364205     0.07000
C388        C  0.09664594  0.03244924  0.77601736    -0.02600
C389        C  0.06846108  0.21278598  0.78254124    -0.02600
C390        C  0.88776789  0.00395916  0.77941444    -0.02600
N391        N  0.80580759  0.08393504  0.80723098    -0.27400
N392        N  0.78972343  0.06595272  0.75257379    -0.35300
C393        C  0.81750590  0.03818174  0.73393611     0.00900
C394        C  0.85283126  0.03690909  0.77907488     0.06900
C395        C  0.84425615  0.06742162  0.82482813    -0.06100
H396        H  0.81117845  0.01920150  0.69051614     0.07600
H397        H  0.86329328  0.07552415  0.86838230     0.08800
Cu398      Cu  0.72672489  0.07640225  0.70686494     0.44200
Cu399      Cu  0.76791411  0.12597681  0.85302922     0.42000
Cu400      Cu  0.69820437  0.18731839  0.75762416     0.43900
N401        N  0.66442679  0.09369889  0.66973757    -0.34800
N402        N  0.65705604  0.13728345  0.68646163    -0.29100
C403        C  0.61347598  0.13678033  0.65553826    -0.05200
C404        C  0.59224966  0.09057180  0.61710899     0.07100
C405        C  0.62561273  0.06427038  0.62700824     0.00900
H406        H  0.59883776  0.16797951  0.66054578     0.08500
H407        H  0.62266492  0.02728350  0.60363238     0.07600
N408        N  0.68453265  0.17465508  0.84560434    -0.36300
N409        N  0.70934042  0.15342412  0.88057225    -0.28400
C410        C  0.68332436  0.14350694  0.93340947    -0.03700
C411        C  0.63816639  0.15600464  0.93032172     0.04900
C412        C  0.64112236  0.17664317  0.87419491     0.03000
H413        H  0.69488527  0.12610273  0.97083453     0.08100
H414        H  0.61287039  0.19061039  0.85476480     0.07000
C415        C  0.98957069  0.11821380  0.28039872     0.03000
C416        C  0.05081438  0.14084366  0.27868524    -0.13100
C417        C  0.07547148  0.10413224  0.27446429     0.00500
C418        C  0.03685885  0.04325277  0.27389703    -0.11700
C419        C  0.97557553  0.01867614  0.27515487     0.03000
C420        C  0.95303110  0.05700188  0.27751024    -0.11100
H421        H  0.07887614  0.18764797  0.28052520     0.08600
H422        H  0.05577134  0.01547358  0.27327015     0.06100
H423        H  0.90621180  0.03789876  0.27729372     0.06000
C424        C  0.05447578  0.05766175  0.77703072     0.03000
C425        C  0.99282872  0.02209105  0.77901689    -0.13100
C426        C  0.95544070  0.04594871  0.78036803     0.00500
C427        C  0.98183337  0.10757666  0.78255845    -0.11700
C428        C  0.04323951  0.14517471  0.78244132     0.03000
C429        C  0.07852866  0.11906797  0.77844955    -0.11100
H430        H  0.97286597  0.97517341  0.77897960     0.08600
H431        H  0.95498677  0.12754272  0.78366433     0.06100
H432        H  0.12542179  0.14612705  0.77638560     0.06000
loop_ 
_geom_bond_atom_site_label_1 
_geom_bond_atom_site_label_2 
_geom_bond_distance 
_geom_bond_site_symmetry_2 
_ccdc_geom_bond_type 
N1            N2   1.321       .  A
N1            C5   1.356       .  A
N1           Cu9   2.122       .  S
N2            C3   1.347       .  A
N2           Cu8   2.094       .  S
C3            C4   1.396       .  A
C3            H6   1.081       .  S
C4            C5   1.403       .  A
C4          C182   1.555       .  S
C5            H7   1.082       .  S
Cu8          N11   2.094       .  S
Cu9          N19   2.124       .  S
Cu10         N12   2.026   1_565  S
Cu10         N18   2.029       .  S
N11          N12   1.321       .  A
N11          C15   1.341       .  A
N12          C13   1.344       .  A
C13          C14   1.372       .  A
C13          H16   1.082       .  S
C14          C15   1.390       .  A
C14          C56   1.469       .  S
C15          H17   1.082       .  S
N18          N19   1.323   1_565  A
N18          C22   1.347       .  A
N19          C20   1.343       .  A
C20          C21   1.398       .  A
C20          H23   1.082       .  S
C21          C22   1.375   1_545  A
C21         C256   1.516       .  S
C22          H24   1.082       .  S
N25          N26   1.322       .  A
N25          C29   1.349       .  A
N25         Cu33   2.034       .  S
N26          C27   1.338       .  A
N26         Cu32   2.096       .  S
C27          C28   1.392       .  A
C27          H30   1.083       .  S
C28          C29   1.376       .  A
C28          C68   1.480       .  S
C29          H31   1.082       .  S
Cu32         N35   2.092       .  S
Cu33         N43   2.036       .  S
Cu34         N36   2.089       .  S
Cu34         N42   2.092       .  S
N35          N36   1.318       .  A
N35          C39   1.347       .  A
N36          C37   1.349       .  A
C37          C38   1.396       .  A
C37          H40   1.081       .  S
C38          C39   1.398       .  A
C38         C181   1.547       .  S
C39          H41   1.082       .  S
N42          N43   1.322       .  A
N42          C46   1.340       .  A
N43          C44   1.343       .  A
C44          C45   1.378       .  A
C44          H47   1.082       .  S
C45          C46   1.394       .  A
C45         C304   1.505       .  S
C46          H48   1.080       .  S
C49         C411   1.507       .  S
C49          C50   1.543       .  S
C49          C55   1.525   1_556  S
C49          C53   1.533   1_556  S
C50          H57   1.085       .  S
C50          C51   1.380   1_556  D
C51         C153   1.507       .  S
C51          C52   1.559       .  S
C52          C56   1.544       .  S
C52          C54   1.531       .  S
C52          H58   1.109       .  S
C53          H59   1.087       .  S
C53          C54   1.360       .  D
C54          C76   1.470       .  S
C55          H60   1.087       .  S
C55          C56   1.357       .  D
C61         C228   1.513       .  S
C61          C62   1.543       .  S
C61          C67   1.520   1_556  S
C61          C65   1.542   1_556  S
C62          H69   1.085       .  S
C62          C63   1.379   1_556  D
C63         C160   1.500       .  S
C63          C64   1.559       .  S
C64          C68   1.553       .  S
C64          C66   1.526       .  S
C64          H70   1.109       .  S
C65          H71   1.086       .  S
C65          C66   1.364       .  D
C66          C93   1.473       .  S
C67          H72   1.087       .  S
C67          C68   1.353       .  D
N73          N74   1.321       .  A
N73          C77   1.344       .  A
N73         Cu81   2.052       .  S
N74          C75   1.342       .  A
N74         Cu80   2.068       .  S
C75          C76   1.383       .  A
C75          H78   1.082       .  S
C76          C77   1.378       .  A
C77          H79   1.082       .  S
Cu80         N83   2.066       .  S
Cu81         N91   2.056       .  S
Cu82         N84   2.096       .  S
Cu82         N90   2.096       .  S
N83          N84   1.322       .  A
N83          C87   1.346       .  A
N84          C85   1.346       .  A
C85          C86   1.389       .  A
C85          H88   1.082       .  S
C86          C87   1.381       .  A
C86         C102   1.478       .  S
C87          H89   1.082       .  S
N90          N91   1.323       .  A
N90          C94   1.347       .  A
N91          C92   1.344       .  A
C92          C93   1.378       .  A
C92          H95   1.082       .  S
C93          C94   1.386       .  A
C94          H96   1.082       .  S
C97         C252   1.501       .  S
C97          C98   1.523       .  S
C97         C103   1.522   1_556  S
C97         C101   1.540   1_456  S
C98         H105   1.084       .  S
C98          C99   1.373   1_556  D
C99         C129   1.506       .  S
C99         C100   1.573       .  S
C100        C104   1.563       .  S
C100        C102   1.537   1_455  S
C100        H106   1.110       .  S
C101        H107   1.087       .  S
C101        C102   1.360       .  D
C103        H108   1.083       .  S
C103        C104   1.354       .  D
C104        C197   1.487       .  S
N109        N110   1.324       .  A
N109        C113   1.354       .  A
N109       Cu117   2.118       .  S
N110        C111   1.363       .  A
N110       Cu116   2.175   1_556  S
C111        C112   1.413       .  A
C111        H114   1.082       .  S
C112        C113   1.399       .  A
C112        C389   1.576       .  S
C113        H115   1.079       .  S
Cu116       N119   2.176       .  S
Cu117       N127   2.118   1_556  S
Cu118       N120   2.100       .  S
Cu118       N126   2.099       .  S
N119        N120   1.326       .  A
N119        C123   1.358   1_455  A
N120        C121   1.353       .  A
C121        C122   1.393   1_455  A
C121        H124   1.077       .  S
C122        C123   1.410       .  A
C122        C182   1.567       .  S
C123        H125   1.082       .  S
N126        N127   1.323       .  A
N126        C130   1.356       .  A
N127        C128   1.348   1_554  A
C128        C129   1.396   1_556  A
C128        H131   1.081       .  S
C129        C130   1.392       .  A
C130        H132   1.082       .  S
N133        N134   1.326       .  A
N133        C137   1.357       .  A
N133       Cu141   2.118       .  S
N134        C135   1.358       .  A
N134       Cu140   2.170   1_556  S
C135        C136   1.408       .  A
C135        H138   1.082       .  S
C136        C137   1.397       .  A
C136        C388   1.573       .  S
C137        H139   1.077       .  S
Cu140       N143   2.169       .  S
Cu141       N151   2.117       .  S
Cu142       N144   2.112       .  S
Cu142       N150   2.111       .  S
N143        N144   1.324       .  A
N143        C147   1.363       .  A
N144        C145   1.351       .  A
C145        C146   1.398       .  A
C145        H148   1.080       .  S
C146        C147   1.412       .  A
C146        C181   1.575       .  S
C147        H149   1.082       .  S
N150        N151   1.323   1_554  A
N150        C154   1.352       .  A
N151        C152   1.354       .  A
C152        C153   1.395   1_556  A
C152        H155   1.081       .  S
C153        C154   1.393       .  A
C154        H156   1.081       .  S
N157        N158   1.323   1_556  A
N157        C161   1.354       .  A
N157       Cu165   2.116       .  S
N158        C159   1.348       .  A
N158       Cu164   2.091       .  S
C159        C160   1.388       .  A
C159        H162   1.081       .  S
C160        C161   1.395   1_554  A
C161        H163   1.082       .  S
Cu164       N167   2.091       .  S
Cu165       N175   2.117       .  S
Cu166       N168   2.164       .  S
Cu166       N174   2.165   1_554  S
N167        N168   1.323       .  A
N167        C171   1.351       .  A
N168        C169   1.358       .  A
C169        C170   1.410       .  A
C169        H172   1.082   1_565  S
C170        C171   1.392       .  A
C170        C183   1.561       .  S
C171        H173   1.081       .  S
N174        N175   1.325       .  A
N174        C178   1.359       .  A
N175        C176   1.354       .  A
C176        C177   1.398       .  A
C176        H179   1.077       .  S
C177        C178   1.408       .  A
C177        C390   1.570   1_565  S
C178        H180   1.082   1_565  S
C181        C319   1.568       .  S
C181        C417   1.562       .  S
C182        C360   1.569       .  S
C182        C415   1.563       .  S
C183        C187   1.550       .  S
C183        C384   1.571       .  S
C183        C419   1.554   1_565  S
N184        N185   1.317   1_655  A
N184        C188   1.345       .  A
N184       Cu192   2.065       .  S
N185        C186   1.355   1_455  A
N185       Cu191   2.123       .  S
C186        C187   1.405       .  A
C186        H189   1.082   1_655  S
C187        C188   1.392       .  A
C188        H190   1.081       .  S
Cu191       N194   2.127       .  S
Cu192       N202   2.067   1_655  S
Cu193       N195   2.031       .  S
Cu193       N201   2.036       .  S
N194        N195   1.325       .  A
N194        C198   1.342       .  A
N195        C196   1.349       .  A
C196        C197   1.372       .  A
C196        H199   1.082       .  S
C197        C198   1.397       .  A
C198        H200   1.083       .  S
N201        N202   1.319       .  A
N201        C205   1.342       .  A
N202        C203   1.336   1_455  A
C203        C204   1.391   1_655  A
C203        H206   1.078       .  S
C204        C205   1.383       .  A
C204        C268   1.507       .  S
C205        H207   1.082       .  S
N208        N209   1.322       .  A
N208        C212   1.344       .  A
N208       Cu216   2.026       .  S
N209        C210   1.343       .  A
N209       Cu215   2.105       .  S
C210        C211   1.392       .  A
C210        H213   1.082       .  S
C211        C212   1.373       .  A
C211        C306   1.470       .  S
C212        H214   1.082       .  S
Cu215       N218   2.105       .  S
Cu216       N226   2.027       .  S
Cu217       N219   2.120       .  S
Cu217       N225   2.121       .  S
N218        N219   1.321       .  A
N218        C222   1.350       .  A
N219        C220   1.355       .  A
C220        C221   1.401       .  A
C220        H223   1.082       .  S
C221        C222   1.398       .  A
C221        C389   1.555       .  S
C222        H224   1.081       .  S
N225        N226   1.322       .  A
N225        C229   1.343       .  A
N226        C227   1.346       .  A
C227        C228   1.374       .  A
C227        H230   1.082       .  S
C228        C229   1.397       .  A
C229        H231   1.082       .  S
N232        N233   1.318       .  A
N232        C236   1.344       .  A
N232       Cu240   2.067       .  S
N233        C234   1.356       .  A
N233       Cu239   2.129   1_455  S
C234        C235   1.406       .  A
C234        H237   1.082       .  S
C235        C236   1.393       .  A
C235        C388   1.553   1_565  S
C236        H238   1.081       .  S
Cu239       N242   2.133       .  S
Cu240       N250   2.067       .  S
Cu241       N243   2.025       .  S
Cu241       N249   2.029       .  S
N242        N243   1.325       .  A
N242        C246   1.344       .  A
N243        C244   1.348       .  A
C244        C245   1.370       .  A
C244        H247   1.082       .  S
C245        C246   1.398       .  A
C245        C270   1.486       .  S
C246        H248   1.082       .  S
N249        N250   1.319   1_655  A
N249        C253   1.341       .  A
N250        C251   1.336       .  A
C251        C252   1.390       .  A
C251        H254   1.079       .  S
C252        C253   1.380   1_455  A
C253        H255   1.082       .  S
C256        C257   1.523       .  S
C256        C262   1.550       .  S
C256        C260   1.540   1_545  S
C257        H264   1.087       .  S
C257        C258   1.353       .  D
C258        C404   1.473       .  S
C258        C259   1.546       .  S
C259        C263   1.553       .  S
C259        C261   1.521   1_545  S
C259        H265   1.109       .  S
C260        H266   1.087       .  S
C260        C261   1.363       .  D
C261        C293   1.464       .  S
C262        H267   1.085       .  S
C262        C263   1.382       .  D
C263        C336   1.504       .  S
C268        C269   1.524   1_455  S
C268        C274   1.529       .  S
C268        C272   1.541       .  S
C269        H276   1.082       .  S
C269        C270   1.353       .  D
C270        C271   1.559   1_655  S
C271        C275   1.566   1_455  S
C271        C273   1.530       .  S
C271        H277   1.110   1_455  S
C272        H278   1.087       .  S
C272        C273   1.360       .  D
C273        C283   1.470       .  S
C274        H279   1.085   1_455  S
C274        C275   1.375   1_455  D
C275        C343   1.504       .  S
N280        N281   1.322       .  A
N280        C284   1.345       .  A
N280       Cu288   2.065       .  S
N281        C282   1.344       .  A
N281       Cu287   2.077       .  S
C282        C283   1.384       .  A
C282        H285   1.082       .  S
C283        C284   1.381       .  A
C284        H286   1.082       .  S
Cu287       N290   2.077       .  S
Cu288       N298   2.067       .  S
Cu289       N291   2.051       .  S
Cu289       N297   2.048       .  S
N290        N291   1.323       .  A
N290        C294   1.344       .  A
N291        C292   1.342       .  A
C292        C293   1.376       .  A
C292        H295   1.082       .  S
C293        C294   1.381       .  A
C294        H296   1.082       .  S
N297        N298   1.321       .  A
N297        C301   1.343       .  A
N298        C299   1.343       .  A
C299        C300   1.382       .  A
C299        H302   1.082       .  S
C300        C301   1.377       .  A
C300        C309   1.467       .  S
C301        H303   1.082       .  S
C304        C305   1.528       .  S
C304        C310   1.537       .  S
C304        C308   1.537       .  S
C305        H312   1.085       .  S
C305        C306   1.357       .  D
C306        C307   1.543       .  S
C307        C311   1.556       .  S
C307        C309   1.528       .  S
C307        H313   1.109       .  S
C308        H314   1.087       .  S
C308        C309   1.360       .  D
C310        H315   1.085       .  S
C310        C311   1.376       .  D
C311        C367   1.499       .  S
N316        N317   1.325       .  A
N316        C320   1.350       .  A
N316       Cu324   2.099       .  S
N317        C318   1.360       .  A
N317       Cu323   2.171       .  S
C318        C319   1.411       .  A
C318        H321   1.082       .  S
C319        C320   1.393       .  A
C320        H322   1.077       .  S
Cu323       N326   2.171       .  S
Cu324       N334   2.099       .  S
Cu325       N327   2.110       .  S
Cu325       N333   2.110       .  S
N326        N327   1.325       .  A
N326        C330   1.361       .  A
N327        C328   1.353       .  A
C328        C329   1.395       .  A
C328        H331   1.080       .  S
C329        C330   1.411       .  A
C329        C388   1.566       .  S
C330        H332   1.082       .  S
N333        N334   1.322       .  A
N333        C337   1.350       .  A
N334        C335   1.354       .  A
C335        C336   1.392       .  A
C335        H338   1.082       .  S
C336        C337   1.394       .  A
C337        H339   1.081       .  S
N340        N341   1.322       .  A
N340        C344   1.349       .  A
N340       Cu348   2.106       .  S
N341        C342   1.355   1_655  A
N341       Cu347   2.105   1_655  S
C342        C343   1.393   1_455  A
C342        H345   1.082       .  S
C343        C344   1.393       .  A
C344        H346   1.081       .  S
Cu347       N350   2.106       .  S
Cu348       N358   2.106       .  S
Cu349       N351   2.179       .  S
Cu349       N357   2.178       .  S
N350        N351   1.326       .  A
N350        C354   1.353       .  A
N351        C352   1.360       .  A
C352        C353   1.411       .  A
C352        H355   1.082       .  S
C353        C354   1.395       .  A
C353        C389   1.571       .  S
C354        H356   1.075       .  S
N357        N358   1.324   1_455  A
N357        C361   1.363   1_455  A
N358        C359   1.352       .  A
C359        C360   1.395       .  A
C359        H362   1.080       .  S
C360        C361   1.413       .  A
C361        H363   1.082   1_655  S
N364        N365   1.322       .  A
N364        C368   1.350       .  A
N364       Cu372   2.099       .  S
N365        C366   1.350       .  A
N365       Cu371   2.096       .  S
C366        C367   1.391       .  A
C366        H369   1.081       .  S
C367        C368   1.392       .  A
C368        H370   1.081       .  S
Cu371       N374   2.097       .  S
Cu372       N382   2.099       .  S
Cu373       N375   2.183       .  S
Cu373       N381   2.183       .  S
N374        N375   1.324       .  A
N374        C378   1.350       .  A
N375        C376   1.363       .  A
C376        C377   1.415       .  A
C376        H379   1.082   1_565  S
C377        C378   1.395       .  A
C377        C390   1.574   1_565  S
C378        H380   1.081       .  S
N381        N382   1.326       .  A
N381        C385   1.361       .  A
N382        C383   1.354       .  A
C383        C384   1.392       .  A
C383        H386   1.079       .  S
C384        C385   1.412       .  A
C385        H387   1.082       .  S
C388        C424   1.564       .  S
C389        C428   1.568       .  S
C390        C394   1.560       .  S
C390        C426   1.566       .  S
N391        N392   1.320       .  A
N391        C395   1.356       .  A
N391       Cu399   2.111       .  S
N392        C393   1.345       .  A
N392       Cu398   2.098       .  S
C393        C394   1.399       .  A
C393        H396   1.080       .  S
C394        C395   1.403       .  A
C395        H397   1.081       .  S
Cu398       N401   2.099       .  S
Cu399       N409   2.114       .  S
Cu400       N402   2.025       .  S
Cu400       N408   2.027       .  S
N401        N402   1.321       .  A
N401        C405   1.341       .  A
N402        C403   1.345       .  A
C403        C404   1.373       .  A
C403        H406   1.082       .  S
C404        C405   1.392       .  A
C405        H407   1.083       .  S
N408        N409   1.323       .  A
N408        C412   1.345       .  A
N409        C410   1.343       .  A
C410        C411   1.395       .  A
C410        H413   1.082       .  S
C411        C412   1.373       .  A
C412        H414   1.082       .  S
C415        C416   1.421   1_655  A
C415        C420   1.414       .  A
C416        C417   1.422       .  A
C416        H421   1.081       .  S
C417        C418   1.412       .  A
C418        C419   1.415   1_455  A
C418        H422   1.079       .  S
C419        C420   1.415       .  A
C420        H423   1.080       .  S
C424        C425   1.419   1_455  A
C424        C429   1.420       .  A
C425        C426   1.419       .  A
C425        H430   1.080   1_545  S
C426        C427   1.419       .  A
C427        C428   1.419   1_655  A
C427        H431   1.080       .  S
C428        C429   1.419       .  A
C429        H432   1.080       .  S
