geometry optimzed in LAMMPS
_audit_creation_date              2020-11-30 
_audit_creation_method            'lammps2cif' 
_symmetry_space_group_name_H-M    'P1' 
_symmetry_Int_Tables_number       1 
_symmetry_cell_setting            triclinic 
loop_ 
_symmetry_equiv_pos_as_xyz 
  x,y,z 
_cell_length_a                    37.24305929 
_cell_length_b                    35.69812745521237 
_cell_length_c                    66.19913927091964 
_cell_angle_alpha                 90.55604756389049 
_cell_angle_beta                  85.17301471428691 
_cell_angle_gamma                 119.54190284036986 
loop_ 
_atom_site_label 
_atom_site_type_symbol 
_atom_site_fract_x 
_atom_site_fract_y 
_atom_site_fract_z 
_atom_site_charge 
C1          C  0.09600983  0.49129856  0.10154060     0.79600
N2          N  0.09887531  0.45681275  0.10785667    -0.78700
C3          C  0.11074189  0.45591673  0.12654773     0.82000
N4          N  0.12020859  0.48963494  0.13872761    -0.78700
C5          C  0.11668442  0.02394937  0.13278598     0.82100
N6          N  0.10441548  0.02455560  0.11413209    -0.80400
C7          C  0.18060549  0.19965957  0.21569995     0.79600
N8          N  0.17203247  0.16831123  0.20217592    -0.78700
C9          C  0.15866748  0.17032894  0.18402913     0.82000
N10         N  0.15386343  0.20445431  0.17956899    -0.78700
C11         C  0.16268817  0.23634777  0.19290638     0.82100
N12         N  0.17540425  0.23365896  0.21121378    -0.80400
C13         C  0.50921138  0.18711411  0.10950464     0.79600
N14         N  0.03516636  0.22390651  0.11913290    -0.78700
C15         C  0.02456384  0.22946900  0.13867946     0.82000
N16         N  0.48865956  0.19878242  0.14820689    -0.78700
C17         C  0.46244761  0.16288227  0.13906110     0.82100
N18         N  0.47326803  0.15681763  0.11971818    -0.80400
C19         C  0.27395806  0.99821087  0.21477402     0.79600
N20         N  0.24479864  0.46537970  0.20453430    -0.78700
C21         C  0.25201725  0.46393155  0.18404441     0.82000
N22         N  0.28720750  0.99509046  0.17417394    -0.78700
C23         C  0.31627734  0.02735388  0.18414777     0.82100
N24         N  0.30931693  0.02914702  0.20445109    -0.80400
C25         C  0.43613150  0.29454900  0.21748495     0.79600
N26         N  0.41490185  0.30389455  0.20449929    -0.78700
C27         C  0.43324974  0.32411372  0.18609199     0.82000
N28         N  0.97291815  0.33373316  0.18075279    -0.78700
C29         C  0.99432075  0.32444179  0.19358068     0.82100
N30         N  0.97539211  0.30454487  0.21178325    -0.80400
C31         C  0.33450571  0.38684141  0.10004302     0.79600
N32         N  0.29791513  0.38436552  0.10686097    -0.78700
C33         C  0.27968203  0.36734591  0.12574603     0.82000
N34         N  0.29899378  0.35392902  0.13801246    -0.78700
C35         C  0.33593450  0.35678200  0.13145086     0.82100
N36         N  0.35344014  0.37330767  0.11243615    -0.80400
O37         O  0.16083718  0.44038108  0.13571268    -0.81500
O38         O  0.17786034  0.30802453  0.18569099    -0.66200
O39         O  0.15620738  0.36231389  0.14293751    -1.12800
C40         C  0.03450006  0.32775525  0.18685524     1.05400
O41         O  0.11293203  0.25456816  0.18614660    -0.79400
O42         O  0.05026541  0.25505608  0.16945607    -0.67000
Ni43       Ni  0.19566191  0.41522223  0.13026936     1.34900
C44         C  0.05254249  0.26463406  0.15080585     0.84100
O45         O  0.22056403  0.34567851  0.14960780    -0.80000
O46         O  0.23307413  0.39334866  0.12408190    -0.90200
C47         C  0.15079680  0.26849275  0.18871460     0.83700
O48         O  0.22352819  0.44212953  0.15341751    -0.68400
O49         O  0.04624182  0.30754807  0.19797570    -0.87700
C50         C  0.22311001  0.43025898  0.17148277     0.84500
C51         C  0.24182770  0.36830767  0.13358105     1.06100
H52         H  0.12869909  0.35565438  0.18811416     0.37900
O53         O  0.12070705  0.33417297  0.17789108    -1.10400
O54         O  0.07600134  0.30229124  0.14299445    -0.67000
Ni55       Ni  0.10595607  0.35644409  0.15612655     1.26300
O56         O  0.20189264  0.39138916  0.17813901    -0.67300
O57         O  0.05423580  0.34759962  0.17007170    -0.79500
C58         C  0.12337797  0.42499506  0.13185518     0.83900
O59         O  0.09740961  0.38503778  0.13433530    -0.66700
Ni60       Ni  0.08097796  0.28285893  0.19173073     1.27400
Ni61       Ni  0.17008372  0.33842336  0.16434798     1.26100
H62         H  0.14909622  0.34194884  0.13222297     0.38400
O63         O  0.21400186  0.18156073  0.30952443    -0.81500
O64         O  0.34826246  0.17825798  0.36236573    -0.66200
O65         O  0.28792831  0.19342862  0.32319105    -1.12800
C66         C  0.28328221  0.07454178  0.29174982     1.05400
O67         O  0.38236794  0.15340455  0.34229410    -0.79400
O68         O  0.37433540  0.17738751  0.30400153    -0.67000
Ni69       Ni  0.24484890  0.20588802  0.33281348     1.34900
C70         C  0.35649115  0.18609697  0.29071377     0.84100
O71         O  0.33325683  0.24053526  0.35415551    -0.80000
O72         O  0.27147178  0.23598173  0.35623585    -0.90200
C73         C  0.37686605  0.16904949  0.35894071     0.83700
O74         O  0.21524131  0.15367048  0.34916853    -0.68400
O75         O  0.32016334  0.09168680  0.29714228    -0.87700
C76         C  0.23104940  0.14427017  0.36333011     0.84500
C77         C  0.30780090  0.25170140  0.36177491     1.06100
H78         H  0.28488189  0.10803310  0.34043751     0.37900
O79         O  0.30294445  0.13178683  0.33109217    -1.10400
O80         O  0.31727703  0.16718786  0.29100702    -0.67000
Ni81       Ni  0.27180079  0.13855417  0.31157416     1.26300
O82         O  0.26994387  0.15759562  0.36295799    -0.67300
O83         O  0.25703804  0.08409804  0.30009036    -0.79500
C84         C  0.22142801  0.16652174  0.29319418     0.83900
O85         O  0.24237168  0.14741535  0.29227901    -0.66700
Ni86       Ni  0.34868129  0.12453112  0.32009836     1.27400
Ni87       Ni  0.31782952  0.18599443  0.34302302     1.26100
H88         H  0.30720702  0.21660999  0.31383784     0.38400
C89         C  0.29227904  0.98428248  0.54093875     0.79600
N90         N  0.27034703  0.99842295  0.53121266    -0.78700
C91         C  0.28202925  0.01485181  0.51199081     0.82000
N92         N  0.31650916  0.01657306  0.50223023    -0.78700
C93         C  0.33922128  0.00245282  0.51171412     0.82100
N94         N  0.32680325  0.98601712  0.53114773    -0.80400
C95         C  0.15444580  0.08029168  0.44440546     0.79600
N96         N  0.17929253  0.07108261  0.45475762    -0.78700
C97         C  0.17008256  0.05878144  0.47463629     0.82000
N98         N  0.13512992  0.05595209  0.48441379    -0.78700
C99         C  0.10945758  0.06509986  0.47448889     0.82100
N100        N  0.11927371  0.07730691  0.45434252    -0.80400
C101        C  0.10477359  0.21762339  0.55341915     0.79600
N102        N  0.13838111  0.24319404  0.54054869    -0.78700
C103        C  0.14139419  0.23240170  0.52108747     0.82000
N104        N  0.11044583  0.19514469  0.51462246    -0.78700
C105        C  0.07687858  0.16891675  0.52743577     0.82100
N106        N  0.07430159  0.17977898  0.54705271    -0.80400
C107        C  0.32972545  0.33648277  0.43691666     0.79600
N108        N  0.36088358  0.37468117  0.44237594    -0.78700
C109        C  0.35965227  0.38767762  0.46162875     0.82000
N110        N  0.32659502  0.36293860  0.47514044    -0.78700
C111        C  0.29499188  0.32492073  0.46956586     0.82100
N112        N  0.29686454  0.31213559  0.45038397    -0.80400
C113        C  0.48081514  0.36669705  0.55586630     0.79600
N114        N  0.47924397  0.33756625  0.54202526    -0.78700
C115        C  0.46956018  0.33944015  0.52277335     0.82000
N116        N  0.46259518  0.37193637  0.51731689    -0.78700
C117        C  0.46366374  0.40106718  0.53103487     0.82100
N118        N  0.47356403  0.39859536  0.55003075    -0.80400
C119        C  0.46479615  0.19309752  0.43047553     0.79600
N120        N  0.46830240  0.22286630  0.44432512    -0.78700
C121        C  0.97858094  0.22066634  0.46320403     0.82000
N122        N  0.98560004  0.18799787  0.46831800    -0.78700
C123        C  0.98252920  0.15819659  0.45450909     0.82100
N124        N  0.97087607  0.16032094  0.43592929    -0.80400
O125        O  0.50434699  0.47417012  0.52187925    -0.81500
O126        O  0.00827654  0.11383104  0.46678383    -0.66200
O127        O  0.48195057  0.03403253  0.51082055    -1.12800
C128        C  0.39046997  0.43081435  0.46710794     1.05400
O129        O  0.44183586  0.08519426  0.46171044    -0.79400
O130        O  0.38114596  0.01510433  0.48154351    -0.67000
Ni131      Ni  0.02225092  0.03402617  0.52608626     1.34900
C132        C  0.37526948  0.00281402  0.50003829     0.84100
O133        O  0.03420743  0.12281684  0.50360795    -0.80000
O134        O  0.04239136  0.09375027  0.53175624    -0.90200
C135        C  0.47824752  0.11731687  0.46139959     0.83700
O136        O  0.06571937  0.04931310  0.50470841    -0.68400
O137        O  0.39646540  0.46253320  0.45586056    -0.87700
C138        C  0.07135676  0.06107370  0.48608695     0.84500
C139        C  0.04844396  0.12590415  0.52079152     1.06100
H140        H  0.47863830  0.01739500  0.46526268     0.37900
O141        O  0.46169412  0.02401059  0.47484697    -1.10400
O142        O  0.39822388  0.99088673  0.50828004    -0.67000
Ni143      Ni  0.44531624  0.48387718  0.49733906     1.26300
O144        O  0.04611696  0.06914060  0.47757299    -0.67300
O145        O  0.40778521  0.43460516  0.48335543    -0.79500
C146        C  0.46773086  0.44208921  0.52401797     0.83900
O147        O  0.43657530  0.44518622  0.51957072    -0.66700
Ni148      Ni  0.42109509  0.02427938  0.45950833     1.27400
Ni149      Ni  0.99818188  0.07420969  0.48864241     1.26100
H150        H  0.46513857  0.04063966  0.52049916     0.38400
C151        C  0.28366045  0.37758165  0.76692393     0.79600
N152        N  0.28717061  0.34197491  0.77057178    -0.78700
C153        C  0.29677638  0.33530407  0.78918245     0.82000
N154        N  0.30423786  0.36494814  0.80367911    -0.78700
C155        C  0.30102151  0.40040203  0.79998735     0.82100
N156        N  0.29100240  0.40634510  0.78163176    -0.80400
C157        C  0.36270347  0.07868406  0.88212336     0.79600
N158        N  0.35257451  0.04446445  0.87014190    -0.78700
C159        C  0.33740201  0.04290539  0.85207744     0.82000
N160        N  0.33262821  0.07623277  0.84600969    -0.78700
C161        C  0.34355451  0.11123558  0.85756145     0.82100
N162        N  0.35856615  0.11246195  0.87573983    -0.80400
C163        C  0.18399891  0.06730999  0.76853798     0.79600
N164        N  0.21237836  0.10219639  0.77824274    -0.78700
C165        C  0.20560831  0.10452565  0.79873749     0.82000
N166        N  0.17142031  0.07246297  0.80901741    -0.78700
C167        C  0.14301977  0.03864501  0.79953504     0.82100
N168        N  0.14964863  0.53495771  0.77957769    -0.80400
C169        C  0.44672404  0.38197033  0.87285689     0.79600
N170        N  0.98349358  0.41077318  0.86337263    -0.78700
C171        C  0.49443793  0.40531581  0.84375479     0.82000
N172        N  0.46810585  0.36978690  0.83439572    -0.78700
C173        C  0.43179602  0.33951791  0.84404113     0.82100
N174        N  0.42074577  0.34535466  0.86349352    -0.80400
C175        C  0.13047767  0.19295942  0.88477736     0.79600
N176        N  0.16606194  0.19480733  0.87680815    -0.78700
C177        C  0.18005042  0.20701677  0.85704601     0.82000
N178        N  0.15715161  0.21583395  0.84495372    -0.78700
C179        C  0.12070753  0.21314998  0.85261668     0.82100
N180        N  0.10763547  0.20152006  0.87255495    -0.80400
C181        C  0.51772416  0.26418641  0.76463519     0.79600
N182        N  0.47915929  0.25692686  0.77065087    -0.78700
C183        C  0.46027725  0.23837846  0.78911682     0.82000
N184        N  0.48071104  0.22743997  0.80190874    -0.78700
C185        C  0.51936158  0.23383676  0.79589445     0.82100
N186        N  0.03682230  0.25110711  0.77748595    -0.80400
O187        O  0.34574866  0.31509145  0.79490645    -0.81500
O188        O  0.35821511  0.18264181  0.84863928    -0.66200
O189        O  0.33663149  0.23482487  0.80447192    -1.12800
C190        C  0.21649820  0.20423995  0.84854528     1.05400
O191        O  0.29422609  0.12821211  0.84795794    -0.79400
O192        O  0.23333861  0.12829559  0.82933917    -0.67000
Ni193      Ni  0.37724837  0.28589707  0.79056695     1.34900
C194        C  0.23400688  0.13941427  0.81108925     0.84100
O195        O  0.40128434  0.21851948  0.81273080    -0.80000
O196        O  0.41203018  0.26087497  0.78528417    -0.90200
C197        C  0.33164885  0.14289170  0.85172515     0.83700
O198        O  0.40632649  0.31395152  0.81322723    -0.68400
O199        O  0.22471627  0.17890021  0.85813022    -0.87700
C200        C  0.40420313  0.30413782  0.83183359     0.84500
C201        C  0.42176021  0.23842456  0.79611927     1.06100
H202        H  0.30836793  0.22833992  0.85002408     0.37900
O203        O  0.30081871  0.20759270  0.83946921    -1.10400
O204        O  0.25509143  0.17818448  0.80416082    -0.67000
Ni205      Ni  0.28745948  0.23167370  0.81771968     1.26300
O206        O  0.38153545  0.26615248  0.83950045    -0.67300
O207        O  0.23733602  0.22579078  0.83224127    -0.79500
C208        C  0.30784133  0.30191810  0.79275476     0.83900
O209        O  0.28029271  0.26253228  0.79612773    -0.66700
Ni210      Ni  0.26079550  0.15536087  0.85253865     1.27400
Ni211      Ni  0.35044773  0.21181335  0.82653772     1.26100
H212        H  0.32843467  0.21329011  0.79427099     0.38400
O213        O  0.50952557  0.13806023  0.01543916    -0.81500
O214        O  0.46015417  0.48933128  0.95097337    -0.66200
O215        O  0.46678623  0.05881020  0.99601128    -1.12800
C216        C  0.03747447  0.99859903  0.02453869     1.05400
O217        O  0.45112073  0.43182216  0.96809623    -0.79400
O218        O  0.43291503  0.44294590  0.00819928    -0.67000
Ni219      Ni  0.48357561  0.11836075  0.99025764     1.34900
C220        C  0.43290322  0.46373716  0.02390143     0.84100
O221        O  0.42479960  0.03656449  0.96137334    -0.80000
O222        O  0.45734975  0.10731817  0.96504431    -0.90200
C223        C  0.45114125  0.45015870  0.95170017     0.83700
O224        O  0.03534031  0.12995035  0.97571451    -0.68400
O225        O  0.01178256  0.46467921  0.01591468    -0.87700
C226        C  0.03763975  0.10989796  0.96005611     0.84500
C227        C  0.43233034  0.07392634  0.95612038     1.06100
H228        H  0.02734394  0.02451829  0.97752648     0.37900
O229        O  0.50041557  0.01232539  0.98540484    -1.10400
O230        O  0.46097693  0.50274995  0.02565478    -0.67000
Ni231      Ni  0.50583048  0.04760927  0.00789551     1.26300
O232        O  0.01002371  0.07119749  0.95715087    -0.67300
O233        O  0.04508350  0.03606449  0.01928123    -0.79500
C234        C  0.51475920  0.12036742  0.03072991     0.83900
O235        O  0.51129693  0.08338835  0.03001611    -0.66700
Ni236      Ni  0.48177413  0.45239587  0.99182657     1.27400
Ni237      Ni  0.46288120  0.02456195  0.97312580     1.26100
H238        H  0.44049893  0.04564340  0.00419392     0.38400
O239        O  0.06623747  0.40891214  0.64288223    -0.81500
O240        O  0.21340671  0.42386886  0.69115550    -0.66200
O241        O  0.14475754  0.42856892  0.65338232    -1.12800
C242        C  0.13600958  0.30277098  0.62837808     1.05400
O243        O  0.24151984  0.38948875  0.67384692    -0.79400
O244        O  0.23014339  0.40603323  0.63407971    -0.67000
Ni245      Ni  0.10035210  0.43721809  0.66486294     1.34900
C246        C  0.21012896  0.40953048  0.62017620     0.84100
O247        O  0.19428688  0.48355874  0.68191049    -0.80000
O248        O  0.12960751  0.47062541  0.68737806    -0.90200
C249        C  0.23646055  0.40696464  0.68989934     0.83700
O250        O  0.07719175  0.38458430  0.68100298    -0.68400
O251        O  0.17389200  0.32105648  0.63200431    -0.87700
C252        C  0.09678077  0.37861879  0.69438025     0.84500
C253        C  0.16750514  0.49146861  0.69108686     1.06100
H254        H  0.14642747  0.34900054  0.67405451     0.37900
O255        O  0.16309699  0.37038938  0.66342362    -1.10400
O256        O  0.17105211  0.39481862  0.62268047    -0.67000
Ni257      Ni  0.12772623  0.37108235  0.64474190     1.26300
O258        O  0.13608127  0.40079485  0.69407315    -0.67300
O259        O  0.11119303  0.31389874  0.63692870    -0.79500
C260        C  0.06787664  0.38733390  0.62772385     0.83900
O261        O  0.09215218  0.37196629  0.62597065    -0.66700
Ni262      Ni  0.20556463  0.35782283  0.65301364     1.27400
Ni263      Ni  0.17967079  0.42730005  0.67244289     1.26100
H264        H  0.16096639  0.44990261  0.64265287     0.38400
C265        C  0.51833460  0.28328673  0.72849793    -0.20900
C266        C  0.03915561  0.28968252  0.74613763    -0.07500
C267        C  0.07927297  0.32573544  0.74621028     0.13400
C268        C  0.09640998  0.35369898  0.72913967    -0.21000
C269        C  0.07490288  0.34707411  0.71175470    -0.07500
C270        C  0.03496907  0.31051029  0.71151280     0.13400
C271        C  0.01068562  0.30041328  0.69321193    -0.24300
H272        H  0.48771058  0.25532138  0.72845540     0.14600
H273        H  0.12694618  0.38161244  0.72961381     0.14700
C274        C  0.10364648  0.33645415  0.76454277    -0.24300
H275        H  0.48248399  0.26935032  0.69486688     0.04900
H276        H  0.02898484  0.29750706  0.67976457     0.08100
H277        H  0.00323558  0.32625597  0.69025534     0.08100
H278        H  0.11173630  0.31111660  0.76755797     0.08100
H279        H  0.08521661  0.33911197  0.77796580     0.08100
H280        H  0.13301367  0.36755868  0.76233162     0.04900
C281        C  0.09507748  0.20595881  0.81843646    -0.20900
C282        C  0.09330155  0.21769551  0.83868890    -0.07500
C283        C  0.06501407  0.23231861  0.84495970     0.13400
C284        C  0.04037908  0.23556246  0.83082340    -0.21000
C285        C  0.04291422  0.22466858  0.81052633    -0.07500
C286        C  0.07033338  0.20905660  0.80435533     0.13400
C287        C  0.07287364  0.19420696  0.78314182    -0.24300
H288        H  0.11576503  0.19374685  0.81355866     0.14600
H289        H  0.51970538  0.24843324  0.83550841     0.14700
C290        C  0.06122711  0.24596988  0.86626290    -0.24300
H291        H  0.09312805  0.17946511  0.78155571     0.04900
H292        H  0.08610097  0.22186477  0.77206173     0.08100
H293        H  0.04150453  0.16960551  0.77933758     0.08100
H294        H  0.09206481  0.27133607  0.87030830     0.08100
H295        H  0.04841990  0.21774565  0.87699339     0.08100
H296        H  0.53930274  0.25941794  0.86803466     0.04900
C297        C  0.08095829  0.17682888  0.93891361    -0.20900
C298        C  0.07015725  0.13382244  0.94319232    -0.07500
C299        C  0.08542281  0.11320155  0.92939447     0.13400
C300        C  0.10736541  0.13457125  0.91094552    -0.21000
C301        C  0.11371527  0.17553570  0.90575034    -0.07500
C302        C  0.10215915  0.19774374  0.92028036     0.13400
C303        C  0.11207110  0.24340875  0.91619210    -0.24300
H304        H  0.07008412  0.19315829  0.94953094     0.14600
H305        H  0.11757674  0.11818862  0.90000690     0.14700
C306        C  0.07864394  0.06870821  0.93386725    -0.24300
H307        H  0.10239428  0.25655081  0.92951994     0.04900
H308        H  0.09562273  0.24479218  0.90332937     0.08100
H309        H  0.14597853  0.26425557  0.91252046     0.08100
H310        H  0.04544409  0.04426661  0.93371941     0.08100
H311        H  0.08938688  0.06765849  0.94888791     0.08100
H312        H  0.09618060  0.05962595  0.92234169     0.04900
C313        C  0.43321966  0.44445402  0.91599136    -0.20900
C314        C  0.44091618  0.42577598  0.93255811    -0.07500
C315        C  0.44219693  0.38684110  0.92964570     0.13400
C316        C  0.43964706  0.37041758  0.91006567    -0.21000
C317        C  0.43604345  0.39176414  0.89341516    -0.07500
C318        C  0.43106616  0.42814573  0.89651777     0.13400
C319        C  0.42440169  0.45043421  0.87915305    -0.24300
H320        H  0.43068296  0.47325260  0.91802368     0.14600
H321        H  0.44345378  0.34248691  0.90747790     0.14700
C322        C  0.44837012  0.36332628  0.94662102    -0.24300
H323        H  0.41980640  0.47760136  0.88432348     0.04900
H324        H  0.39636750  0.42705891  0.87192701     0.08100
H325        H  0.45160636  0.46362431  0.86769662     0.08100
H326        H  0.92390824  0.85395849  0.95881289     0.08100
H327        H  0.47853936  0.38441174  0.95277710     0.08100
H328        H  0.44859933  0.33377152  0.94139660     0.04900
C329        C  0.09080164  0.46107322  0.80663235    -0.20900
C330        C  0.10603444  0.50411668  0.81180516    -0.07500
C331        C  0.08550871  0.51401258  0.82824867     0.13400
C332        C  0.04955511  0.48069026  0.83848913    -0.21000
C333        C  0.03373654  0.43765445  0.83308003    -0.07500
C334        C  0.05521266  0.42760778  0.81713635     0.13400
C335        C  0.04191209  0.38189363  0.81134395    -0.24300
H336        H  0.10714250  0.45352930  0.79437235     0.14600
H337        H  0.03331222  0.48851510  0.85067668     0.14700
C338        C  0.09850658  0.06039738  0.83370863    -0.24300
H339        H  0.06482723  0.38040197  0.80000881     0.04900
H340        H  0.51311209  0.36758369  0.80460687     0.08100
H341        H  0.03894249  0.36222228  0.82493187     0.08100
H342        H  0.10124871  0.08062438  0.82039612     0.08100
H343        H  0.12873360  0.07401921  0.84027377     0.08100
H344        H  0.07625912  0.06199989  0.84547785     0.04900
C345        C  0.16189891  0.56103584  0.73411831    -0.20900
C346        C  0.18959188  0.06092427  0.74659859    -0.07500
C347        C  0.21547452  0.04443051  0.73918408     0.13400
C348        C  0.20959658  0.52376010  0.72044733    -0.21000
C349        C  0.17901495  0.52122553  0.70844520    -0.07500
C350        C  0.15651968  0.54243106  0.71497183     0.13400
C351        C  0.12648652  0.54541175  0.70203997    -0.24300
H352        H  0.14253239  0.57438200  0.73973812     0.14600
H353        H  0.22734702  0.50816417  0.71557581     0.15300
C354        C  0.24717015  0.04460033  0.75194970    -0.24300
H355        H  0.11498837  0.56663976  0.70870866     0.04900
H356        H  0.09901868  0.51323488  0.70069757     0.08100
H357        H  0.14212604  0.55913084  0.68674749     0.08100
H358        H  0.23163497  0.02575941  0.76636238     0.08100
H359        H  0.26961963  0.07826785  0.75543242     0.08100
H360        H  0.26468374  0.03017365  0.74403077     0.04900
C361        C  0.37450617  0.04378524  0.93401802    -0.20900
C362        C  0.41300204  0.07840583  0.93823002    -0.07500
C363        C  0.43385769  0.11401770  0.92413529     0.13400
C364        C  0.41559621  0.11392538  0.90641376    -0.21000
C365        C  0.37798116  0.07866302  0.90197513    -0.07500
C366        C  0.35693575  0.04318839  0.91601260     0.13400
C367        C  0.31579757  0.00474299  0.91225195    -0.24300
H368        H  0.35849057  0.01643391  0.94467917     0.14600
H369        H  0.43176540  0.14068802  0.89543773     0.14700
C370        C  0.47653926  0.15091976  0.92680397    -0.24300
H371        H  0.30267624  0.98141566  0.92542918     0.04900
H372        H  0.31953626  0.98737785  0.89897520     0.08100
H373        H  0.29321648  0.01547185  0.90947977     0.08100
H374        H  0.49885945  0.63834354  0.92806676     0.08100
H375        H  0.47575307  0.16851180  0.94058830     0.08100
H376        H  0.48887704  0.17448008  0.91372399     0.04900
C377        C  0.35178173  0.48571107  0.83892575    -0.20900
C378        C  0.32601324  0.00487029  0.83936267    -0.07500
C379        C  0.29125834  0.98776569  0.82785457     0.13400
C380        C  0.28216773  0.95141589  0.81643199    -0.21000
C381        C  0.30899508  0.43358433  0.81521639    -0.07500
C382        C  0.34339721  0.45016703  0.82686853     0.13400
C383        C  0.37251311  0.43210449  0.82592051    -0.24300
H384        H  0.37833159  0.49864601  0.84776558     0.14600
H385        H  0.25541014  0.93817045  0.80775498     0.14700
C386        C  0.26324042  0.00707769  0.82750789    -0.24300
H387        H  0.39905504  0.45065206  0.83510383     0.04900
H388        H  0.38525211  0.43346155  0.80999365     0.08100
H389        H  0.35584435  0.39823459  0.83189344     0.08100
H390        H  0.28047826  0.03981358  0.82019353     0.08100
H391        H  0.25110259  0.00868419  0.84320161     0.08100
H392        H  0.23627878  0.98768001  0.81867932     0.04900
C393        C  0.23835649  0.41341489  0.72699547    -0.20900
C394        C  0.25469215  0.40461778  0.70879029    -0.07500
C395        C  0.28287635  0.38884639  0.70986926     0.13400
C396        C  0.29146009  0.37981868  0.72902311    -0.21000
C397        C  0.27325408  0.38673987  0.74707808    -0.07500
C398        C  0.24702102  0.40477229  0.74593753     0.13400
C399        C  0.22657891  0.41396389  0.76452117    -0.24300
H400        H  0.21713358  0.42588359  0.72659816     0.14600
H401        H  0.31271924  0.36751159  0.72992092     0.14700
C402        C  0.30445146  0.38180886  0.69114278    -0.24300
H403        H  0.20414207  0.42409041  0.76059269     0.04900
H404        H  0.25026109  0.44104015  0.77259121     0.08100
H405        H  0.20953409  0.38470189  0.77466826     0.08100
H406        H  0.32081677  0.41187505  0.68150218     0.08100
H407        H  0.28171147  0.35510679  0.68247855     0.08100
H408        H  0.32783962  0.37295848  0.69499596     0.04900
C409        C  0.50048623  0.29499685  0.50884888    -0.20900
C410        C  0.47156808  0.30925995  0.50734686    -0.07500
C411        C  0.44556866  0.29432918  0.49125431     0.13400
C412        C  0.44931170  0.26612061  0.47730686    -0.21000
C413        C  0.47817292  0.25182112  0.47876742    -0.07500
C414        C  0.50423941  0.26673927  0.49485140     0.13400
C415        C  0.03668986  0.25387657  0.49679234    -0.24300
H416        H  0.52078891  0.30647633  0.52098073     0.14600
H417        H  0.42879505  0.25451683  0.46527410     0.14700
C418        C  0.41262964  0.30652328  0.48896706    -0.24300
H419        H  0.55629731  0.27119272  0.50965686     0.04900
H420        H  0.05731598  0.26219022  0.48248784     0.08100
H421        H  0.52224725  0.21916685  0.50064876     0.08100
H422        H  0.42714753  0.34151899  0.48528257     0.08100
H423        H  0.39185447  0.29814350  0.50322230     0.08100
H424        H  0.39318726  0.28928314  0.47650973     0.04900
C425        C  0.01697162  0.33990008  0.60375454    -0.20900
C426        C  0.04171243  0.38135624  0.61088723    -0.07500
C427        C  0.54279340  0.41721323  0.60082028     0.13400
C428        C  0.52120426  0.41062469  0.58358292    -0.21000
C429        C  0.49816084  0.36943598  0.57576207    -0.07500
C430        C  0.99502936  0.33345236  0.58647727     0.13400
C431        C  0.96688585  0.28802770  0.58040130    -0.24300
H432        H  0.01501887  0.31245039  0.61169606     0.14600
H433        H  0.52404308  0.43847470  0.57563294     0.14700
C434        C  0.56941489  0.46264895  0.60736469    -0.24300
H435        H  0.96506328  0.26391345  0.59152502     0.04900
H436        H  0.97856653  0.28194954  0.56547953     0.08100
H437        H  0.93506915  0.28279703  0.57962566     0.08100
H438        H  0.10329255  0.46954052  0.60712946     0.08100
H439        H  0.55829982  0.46637997  0.62292913     0.08100
H440        H  0.56849716  0.48671313  0.59722230     0.04900
C441        C  0.24306620  0.32336915  0.49612947    -0.20900
C442        C  0.25661343  0.30027871  0.48333787    -0.07500
C443        C  0.23199807  0.25477628  0.48316819     0.13400
C444        C  0.19446850  0.23402437  0.49547399    -0.21000
C445        C  0.18068104  0.25715908  0.50804624    -0.07500
C446        C  0.20543335  0.30253580  0.50842918     0.13400
C447        C  0.19188509  0.32951941  0.52110240    -0.24300
H448        H  0.26156542  0.35818400  0.49613422     0.14600
H449        H  0.17595463  0.19919879  0.49546892     0.14700
C450        C  0.24528098  0.22743758  0.47059681    -0.24300
H451        H  0.21349152  0.36454988  0.51820929     0.04900
H452        H  0.19114866  0.32261948  0.53747846     0.08100
H453        H  0.16067690  0.32261306  0.51745625     0.08100
H454        H  0.27678239  0.23480785  0.47394645     0.08100
H455        H  0.24507232  0.23338013  0.45420814     0.08100
H456        H  0.22400244  0.19245870  0.47388808     0.04900
C457        C  0.13211045  0.22709936  0.58666419    -0.20900
C458        C  0.10438158  0.22994040  0.57459217    -0.07500
C459        C  0.08314944  0.25169883  0.58155755     0.13400
C460        C  0.09122058  0.27148106  0.60029881    -0.21000
C461        C  0.12178736  0.27205671  0.61169794    -0.07500
C462        C  0.14148486  0.24819031  0.60506941     0.13400
C463        C  0.17293913  0.24529526  0.61692336    -0.24300
H464        H  0.14846449  0.21049114  0.58100488     0.14600
H465        H  0.07609710  0.28977143  0.60514749     0.14700
C466        C  0.05430660  0.25670712  0.56859095    -0.24300
H467        H  0.18205775  0.22215879  0.61029956     0.04900
H468        H  0.15969756  0.23411497  0.63278858     0.08100
H469        H  0.20158074  0.27706726  0.61675936     0.08100
H470        H  0.02844210  0.22449680  0.56540198     0.08100
H471        H  0.07142801  0.27390129  0.55403739     0.08100
H472        H  0.04096027  0.27552758  0.57619254     0.04900
C473        C  0.21144276  0.00252600  0.50699997    -0.20900
C474        C  0.25454149  0.02692973  0.50179127    -0.07500
C475        C  0.26960834  0.06266408  0.48802393     0.13400
C476        C  0.24135221  0.07255209  0.47980119    -0.21000
C477        C  0.19824762  0.04807832  0.48504623    -0.07500
C478        C  0.18324970  0.01240197  0.49883569     0.13400
C479        C  0.13750464  0.98338803  0.50444211    -0.24300
H480        H  0.19951719  0.97495571  0.51745184     0.14600
H481        H  0.25309885  0.09989104  0.46922199     0.14700
C482        C  0.31536739  0.09137994  0.48242799    -0.24300
H483        H  0.13128276  0.95562041  0.51443044     0.04900
H484        H  0.12143300  0.97037651  0.49052359     0.08100
H485        H  0.12428002  0.00158431  0.51276116     0.08100
H486        H  0.32844815  0.07291710  0.47424053     0.08100
H487        H  0.33141446  0.10443367  0.49634901     0.08100
H488        H  0.32172874  0.11907273  0.47234800     0.04900
C489        C  0.23149797  0.43433888  0.56317302    -0.20900
C490        C  0.27434409  0.96263573  0.56106878    -0.07500
C491        C  0.29666804  0.97263581  0.57836695     0.13400
C492        C  0.27522805  0.45449451  0.59747018    -0.21000
C493        C  0.23175353  0.42796538  0.59973276    -0.07500
C494        C  0.20984734  0.41703746  0.58202797     0.13400
C495        C  0.16375015  0.38652345  0.58231840    -0.24300
H496        H  0.21454379  0.42646077  0.54978521     0.14600
H497        H  0.29207965  0.96338514  0.61084978     0.14700
C498        C  0.34279426  0.00252470  0.57676619    -0.24300
H499        H  0.15313777  0.38004451  0.56683129     0.04900
H500        H  0.14628701  0.40053953  0.59062330     0.08100
H501        H  0.15590317  0.35512579  0.58941546     0.08100
H502        H  0.35025295  0.03429574  0.57016719     0.08100
H503        H  0.35851736  0.98857048  0.56693048     0.08100
H504        H  0.35524905  0.00772562  0.59183111     0.04900
C505        C  0.43373628  0.15241817  0.39984578    -0.20900
C506        C  0.44723923  0.19077917  0.41060295    -0.07500
C507        C  0.44161512  0.22403659  0.40246193     0.13400
C508        C  0.41981752  0.21640477  0.38513006    -0.21000
C509        C  0.40457172  0.17718551  0.37522875    -0.07500
C510        C  0.41280201  0.14534210  0.38232036     0.13400
C511        C  0.39777711  0.10291332  0.37209469    -0.24300
H512        H  0.93749616  0.12614834  0.40529625     0.14600
H513        H  0.41416332  0.24115232  0.37933905     0.14700
C514        C  0.45870935  0.26784958  0.41151191    -0.24300
H515        H  0.40553635  0.08100293  0.38011100     0.04900
H516        H  0.41262994  0.10848439  0.35634010     0.08100
H517        H  0.36358313  0.08646596  0.37182396     0.08100
H518        H  0.49257626  0.28212788  0.41243337     0.08100
H519        H  0.44297363  0.26536043  0.42680714     0.08100
H520        H  0.45386282  0.29039972  0.40217602     0.04900
C521        C  0.31101160  0.33000150  0.40178464    -0.20900
C522        C  0.33075693  0.32093433  0.41651272    -0.07500
C523        C  0.34615538  0.29245616  0.41249003     0.13400
C524        C  0.34074113  0.27276588  0.39377455    -0.21000
C525        C  0.31892421  0.27977220  0.37932331    -0.07500
C526        C  0.30458310  0.30950284  0.38318676     0.13400
C527        C  0.28250195  0.31974150  0.36792508    -0.24300
H528        H  0.29899141  0.35172929  0.40523115     0.14600
H529        H  0.35132008  0.24967020  0.39095865     0.14700
C530        C  0.36655738  0.28135480  0.42831306    -0.24300
H531        H  0.27636106  0.34598514  0.37297478     0.04900
H532        H  0.25212794  0.29105539  0.36580240     0.08100
H533        H  0.30187140  0.33034901  0.35320598     0.08100
H534        H  0.34475305  0.26713598  0.44214523     0.08100
H535        H  0.39474053  0.31088430  0.43230241     0.08100
H536        H  0.37565518  0.25748572  0.42282471     0.04900
C537        C  0.18692391  0.07284900  0.41140692    -0.20900
C538        C  0.16671562  0.09233091  0.42232524    -0.07500
C539        C  0.16412949  0.12596286  0.41261590     0.13400
C540        C  0.18219421  0.13938297  0.39252899    -0.21000
C541        C  0.20468161  0.12168607  0.38223242    -0.07500
C542        C  0.20676320  0.08773020  0.39181920     0.13400
C543        C  0.23053230  0.06754857  0.38166156    -0.24300
H544        H  0.18900771  0.04698890  0.41867343     0.14600
H545        H  0.18149076  0.16618258  0.38538257     0.14700
C546        C  0.14550831  0.15017763  0.42379876    -0.24300
H547        H  0.22712884  0.03997710  0.39089320     0.04900
H548        H  0.26406842  0.09149915  0.37953603     0.08100
H549        H  0.21891263  0.05550093  0.36670979     0.08100
H550        H  0.16197679  0.16425374  0.43751742     0.08100
H551        H  0.11214299  0.12811928  0.42831496     0.08100
H552        H  0.14807458  0.17696520  0.41425932     0.04900
C553        C  0.35885207  0.37959247  0.06486461    -0.20900
C554        C  0.35494029  0.40601838  0.07965073    -0.07500
C555        C  0.37312110  0.45060064  0.07523238     0.13400
C556        C  0.39595311  0.46790436  0.05638588    -0.21000
C557        C  0.40152398  0.44188429  0.04169750    -0.07500
C558        C  0.38153420  0.39667511  0.04591684     0.13400
C559        C  0.38493550  0.36605912  0.03103875    -0.24300
H560        H  0.34471917  0.34535640  0.06837531     0.14600
H561        H  0.41088399  0.50240316  0.05344350     0.14700
C562        C  0.37044560  0.48033540  0.09083336    -0.24300
H563        H  0.36771203  0.33221212  0.03708904     0.04900
H564        H  0.41781030  0.37457963  0.02762301     0.08100
H565        H  0.37163881  0.36730209  0.01683579     0.08100
H566        H  0.38446337  0.47810651  0.10459416     0.08100
H567        H  0.33754142  0.47111042  0.09493994     0.08100
H568        H  0.38721786  0.51445162  0.08515020     0.04900
C569        C  0.36577406  0.30496413  0.17253241    -0.20900
C570        C  0.40892255  0.33290763  0.17183801    -0.07500
C571        C  0.42745566  0.36855821  0.15774978     0.13400
C572        C  0.40265561  0.37484328  0.14483352    -0.21000
C573        C  0.35966167  0.34699932  0.14553875    -0.07500
C574        C  0.34095616  0.31147012  0.15962200     0.13400
C575        C  0.29519809  0.27946485  0.16072208    -0.24300
H576        H  0.35131109  0.27744837  0.18312304     0.14600
H577        H  0.41700143  0.40238775  0.13425114     0.14700
C578        C  0.47305619  0.40125145  0.15656463    -0.24300
H579        H  0.28642378  0.25220956  0.17161833     0.04900
H580        H  0.28661903  0.26596099  0.14557069     0.08100
H581        H  0.27699292  0.29529438  0.16587168     0.08100
H582        H  0.99153006  0.38567163  0.15110542     0.08100
H583        H  0.98198490  0.41433911  0.17185416     0.08100
H584        H  0.48123765  0.42867126  0.14588133     0.04900
C585        C  0.43677922  0.25160869  0.24691676    -0.20900
C586        C  0.41625513  0.26983561  0.23722771    -0.07500
C587        C  0.37800906  0.26360432  0.24667980     0.13400
C588        C  0.36074107  0.23773988  0.26454666    -0.21000
C589        C  0.38037540  0.21797565  0.27362774    -0.07500
C590        C  0.41965788  0.22620359  0.26495116     0.13400
C591        C  0.44332526  0.20745988  0.27412516    -0.24300
H592        H  0.46632351  0.25641059  0.24016101     0.14600
H593        H  0.33104766  0.23243463  0.27139706     0.14700
C594        C  0.35504385  0.28421103  0.23846661    -0.24300
H595        H  0.47318285  0.21670143  0.26507824     0.04900
H596        H  0.42470557  0.17174381  0.27484991     0.08100
H597        H  0.45056803  0.21957433  0.28960239     0.08100
H598        H  0.34432968  0.27113176  0.22352839     0.08100
H599        H  0.37553546  0.31969439  0.23701909     0.08100
H600        H  0.32709785  0.27769319  0.24860427     0.04900
C601        C  0.29645569  0.02539509  0.26903667    -0.20900
C602        C  0.27241984  0.04521146  0.27414393    -0.07500
C603        C  0.24240975  0.04063639  0.26085355     0.13400
C604        C  0.24002273  0.01996633  0.24237848    -0.21000
C605        C  0.26701720  0.00430338  0.23659256    -0.07500
C606        C  0.29422554  0.00527595  0.25043963     0.13400
C607        C  0.32162906  0.48642030  0.24521310    -0.24300
H608        H  0.31869353  0.02750684  0.27918881     0.14600
H609        H  0.21949960  0.01948275  0.23156180     0.14700
C610        C  0.21514288  0.06049499  0.26488348    -0.24300
H611        H  0.34035769  0.48886531  0.25787253     0.04900
H612        H  0.34330079  0.50346282  0.23166037     0.08100
H613        H  0.30231163  0.45180429  0.24201527     0.08100
H614        H  0.23482773  0.09589662  0.26517983     0.08100
H615        H  0.19569816  0.04744217  0.27946329     0.08100
H616        H  0.19388139  0.05366316  0.25284222     0.04900
C617        C  0.40930681  0.08606610  0.14531877    -0.20900
C618        C  0.42446695  0.12903677  0.15075281    -0.07500
C619        C  0.40387280  0.13818098  0.16754036     0.13400
C620        C  0.36902046  0.10414634  0.17820879    -0.21000
C621        C  0.35400274  0.06136862  0.17267684    -0.07500
C622        C  0.37459154  0.05213009  0.15606735     0.13400
C623        C  0.36138480  0.00658600  0.14998124    -0.24300
H624        H  0.42518877  0.07876421  0.13275273     0.14600
H625        H  0.35295824  0.11105439  0.19084695     0.14700
C626        C  0.41732230  0.18344326  0.17422584    -0.24300
H627        H  0.38374315  0.00548725  0.13813895     0.04900
H628        H  0.33085937  0.99199987  0.14366389     0.08100
H629        H  0.35962346  0.98692744  0.16331726     0.08100
H630        H  0.41886990  0.20381197  0.16124685     0.08100
H631        H  0.94801263  0.19765121  0.18073805     0.08100
H632        H  0.89550099  0.18466882  0.18675229     0.04900
C633        C  0.51941317  0.18032047  0.05242357    -0.20900
C634        C  0.52276788  0.14271613  0.05052727    -0.07500
C635        C  0.52989455  0.12549190  0.06815142     0.13400
C636        C  0.52788998  0.14272015  0.08710044    -0.21000
C637        C  0.52063532  0.17753144  0.08900342    -0.07500
C638        C  0.51849554  0.19798066  0.07143994     0.13400
C639        C  0.51322587  0.23713495  0.07290308    -0.24300
H640        H  0.51543287  0.19490922  0.03914134     0.14600
H641        H  0.53046011  0.12786571  0.10071858     0.14700
C642        C  0.53932733  0.08889355  0.06753809    -0.24300
H643        H  0.51186231  0.24917608  0.05773961     0.04900
H644        H  0.04028873  0.26376132  0.08023541     0.08100
H645        H  0.48408739  0.22917137  0.08232267     0.08100
H646        H  0.06598831  0.09709491  0.05658104     0.08100
H647        H  0.51186106  0.05847388  0.06375044     0.08100
H648        H  0.54775959  0.08294136  0.08240946     0.04900
C649        C  0.16689993  0.19091198  0.25307761    -0.20900
C650        C  0.19254279  0.19435248  0.23559318    -0.07500
C651        C  0.22691333  0.18841564  0.23710791     0.13400
C652        C  0.23460354  0.17872250  0.25609574    -0.21000
C653        C  0.20869853  0.17438327  0.27374843    -0.07500
C654        C  0.17447611  0.18091579  0.27221091     0.13400
C655        C  0.14518836  0.17621246  0.29038851    -0.24300
H656        H  0.14020577  0.19494333  0.25164652     0.14600
H657        H  0.26169244  0.17520979  0.25713160     0.14700
C658        C  0.25619692  0.19329658  0.21881584    -0.24300
H659        H  0.11865697  0.17947191  0.28606117     0.04900
H660        H  0.16155519  0.20165818  0.30126697     0.08100
H661        H  0.13256240  0.14393290  0.29789132     0.08100
H662        H  0.26873255  0.22562798  0.21138582     0.08100
H663        H  0.23985276  0.16813676  0.20783073     0.08100
H664        H  0.28278549  0.18997777  0.22300852     0.04900
C665        C  0.16657981  0.10857874  0.17235225    -0.20900
C666        C  0.14846873  0.13449666  0.16988224    -0.07500
C667        C  0.11999391  0.12384211  0.15497813     0.13400
C668        C  0.11065968  0.08777126  0.14319572    -0.21000
C669        C  0.12815612  0.06137194  0.14601210    -0.07500
C670        C  0.15666070  0.07210888  0.16091095     0.13400
C671        C  0.17753620  0.04616478  0.16492555    -0.24300
H672        H  0.18865249  0.11665875  0.18355569     0.14600
H673        H  0.08877146  0.07967025  0.13188433     0.14700
C674        C  0.09806065  0.14897667  0.15165517    -0.24300
H675        H  0.20048297  0.06108017  0.17631633     0.04900
H676        H  0.19435132  0.04385070  0.15073055     0.08100
H677        H  0.15417459  0.01351124  0.17108737     0.08100
H678        H  0.12085820  0.18236432  0.14618846     0.08100
H679        H  0.08058776  0.14945602  0.16600669     0.08100
H680        H  0.07551283  0.13449293  0.14005691     0.04900
C681        C  0.05219531  0.45523044  0.07387909    -0.20900
C682        C  0.08423378  0.49292803  0.08099857    -0.07500
C683        C  0.10372775  0.03132434  0.06853074     0.13400
C684        C  0.08993692  0.03078902  0.04943299    -0.21000
C685        C  0.05597360  0.99384142  0.04270475    -0.07500
C686        C  0.03718240  0.45492547  0.05514779     0.13400
C687        C  0.50035996  0.41348274  0.04909557    -0.24300
H688        H  0.03743219  0.42620003  0.08352663     0.14600
H689        H  0.10477920  0.06015835  0.04004035     0.14700
C690        C  0.13937788  0.07259721  0.07507593    -0.24300
H691        H  0.49011104  0.38708252  0.06069942     0.04900
H692        H  0.50847569  0.40231811  0.03461290     0.08100
H693        H  0.47362754  0.91946971  0.04751134     0.08100
H694        H  0.16500885  0.56554017  0.07898935     0.08100
H695        H  0.12863647  0.08545339  0.08811223     0.08100
H696        H  0.15277457  0.09795889  0.06275899     0.04900
C697        C  0.09572548  0.99149130  0.10153246     0.79600
N698        N  0.09866836  0.95700679  0.10778160    -0.78700
C699        C  0.11049601  0.95599764  0.12646963     0.82000
N700        N  0.11985933  0.98961252  0.13870495    -0.78700
C701        C  0.11709235  0.52396729  0.13274334     0.82100
N702        N  0.10479164  0.52447487  0.11408369    -0.80400
C703        C  0.18028341  0.69967944  0.21563415     0.79600
N704        N  0.17190229  0.66832290  0.20212579    -0.78700
C705        C  0.15869013  0.67030795  0.18392850     0.82000
N706        N  0.15389444  0.70440078  0.17938976    -0.78700
C707        C  0.16254718  0.73629330  0.19270558     0.82100
N708        N  0.17508905  0.73364524  0.21106730    -0.80400
C709        C  0.50904640  0.68752024  0.10945229     0.79600
N710        N  0.03480913  0.72382046  0.11896584    -0.78700
C711        C  0.02424070  0.72952287  0.13849046     0.82000
N712        N  0.48866087  0.69916353  0.14819285    -0.78700
C713        C  0.46235276  0.66333137  0.13903927     0.82100
N714        N  0.47308712  0.65727238  0.11967642    -0.80400
C715        C  0.27381275  0.49858572  0.21473984     0.79600
N716        N  0.24478435  0.96514584  0.20455614    -0.78700
C717        C  0.25191172  0.96375454  0.18404834     0.82000
N718        N  0.28726447  0.49535649  0.17416878    -0.78700
C719        C  0.31620205  0.52777127  0.18413881     0.82100
N720        N  0.30913429  0.52961234  0.20442990    -0.80400
C721        C  0.43612922  0.79466481  0.21733933     0.79600
N722        N  0.41491841  0.80402044  0.20434199    -0.78700
C723        C  0.43331117  0.82430904  0.18594908     0.82000
N724        N  0.97299308  0.83388192  0.18067371    -0.78700
C725        C  0.99437558  0.82445479  0.19345248     0.82100
N726        N  0.97546540  0.80447880  0.21164200    -0.80400
C727        C  0.33484327  0.88759921  0.09994576     0.79600
N728        N  0.29820693  0.88505126  0.10673955    -0.78700
C729        C  0.27992601  0.86796431  0.12561086     0.82000
N730        N  0.29923254  0.85455357  0.13788470    -0.78700
C731        C  0.33621753  0.85748357  0.13134853     0.82100
N732        N  0.35376559  0.87406546  0.11234638    -0.80400
O733        O  0.16065858  0.94053809  0.13562465    -0.81500
O734        O  0.17777528  0.80794572  0.18539948    -0.66200
O735        O  0.15619543  0.86248300  0.14271674    -1.12800
C736        C  0.03451487  0.82774547  0.18668409     1.05400
O737        O  0.11286265  0.75450590  0.18577105    -0.79400
O738        O  0.05008694  0.75510953  0.16922702    -0.67000
Ni739      Ni  0.19565059  0.91556149  0.13018356     1.34900
C740        C  0.05234551  0.76468369  0.15058043     0.84100
O741        O  0.22058872  0.84587884  0.14936966    -0.80000
O742        O  0.23324575  0.89390303  0.12398914    -0.90200
C743        C  0.15069370  0.76841854  0.18841209     0.83700
O744        O  0.22328664  0.94228557  0.15342325    -0.68400
O745        O  0.04631614  0.80757508  0.19779302    -0.87700
C746        C  0.22291982  0.93023150  0.17144816     0.84500
C747        C  0.24197076  0.86875978  0.13342143     1.06100
H748        H  0.12861251  0.85559312  0.18787454     0.37900
O749        O  0.12064452  0.83413994  0.17763890    -1.10400
O750        O  0.07592914  0.80231208  0.14275063    -0.67000
Ni751      Ni  0.10588259  0.85646325  0.15590758     1.26300
O752        O  0.20179058  0.89129136  0.17800334    -0.67300
O753        O  0.05415781  0.84753340  0.16987549    -0.79500
C754        C  0.12321355  0.92510328  0.13172653     0.83900
O755        O  0.09730996  0.88511528  0.13414684    -0.66700
Ni756      Ni  0.08095624  0.78281516  0.19146357     1.27400
Ni757      Ni  0.17004528  0.83847371  0.16409914     1.26100
H758        H  0.14914340  0.84221875  0.13195926     0.38400
O759        O  0.21338040  0.68128642  0.30955496    -0.81500
O760        O  0.34795343  0.67826900  0.36229457    -0.66200
O761        O  0.28757905  0.69352157  0.32315538    -1.12800
C762        C  0.28291539  0.57464720  0.29169702     1.05400
O763        O  0.38212402  0.65356440  0.34218134    -0.79400
O764        O  0.37406079  0.67741911  0.30387167    -0.67000
Ni765      Ni  0.24444793  0.70592354  0.33277083     1.34900
C766        C  0.35624147  0.68619619  0.29059551     0.84100
O767        O  0.33294505  0.74055969  0.35412954    -0.80000
O768        O  0.27126287  0.73629561  0.35610475    -0.90200
C769        C  0.37661292  0.66914793  0.35884458     0.83700
O770        O  0.21491507  0.65386691  0.34926085    -0.68400
O771        O  0.31978024  0.59172864  0.29710109    -0.87700
C772        C  0.23077790  0.64445576  0.36339335     0.84500
C773        C  0.30757272  0.75191181  0.36166534     1.06100
H774        H  0.28452778  0.60810770  0.34034790     0.37900
O775        O  0.30261384  0.63187996  0.33101577    -1.10400
O776        O  0.31702224  0.66742260  0.29093020    -0.67000
Ni777      Ni  0.27150950  0.63872197  0.31149461     1.26300
O778        O  0.26965736  0.65765423  0.36294886    -0.67300
O779        O  0.25671629  0.58429644  0.29999655    -0.79500
C780        C  0.22104204  0.66658765  0.29316269     0.83900
O781        O  0.24216703  0.64768349  0.29219188    -0.66700
Ni782      Ni  0.34835854  0.62462055  0.32002091     1.27400
Ni783      Ni  0.31749477  0.68604561  0.34297722     1.26100
H784        H  0.30686020  0.71672924  0.31381466     0.38400
C785        C  0.29220787  0.48389464  0.54090517     0.79600
N786        N  0.27024630  0.49799712  0.53116807    -0.78700
C787        C  0.28184378  0.51429639  0.51192002     0.82000
N788        N  0.31627714  0.51593687  0.50214298    -0.78700
C789        C  0.33901815  0.50186440  0.51163670     0.82100
N790        N  0.32668046  0.48555735  0.53109328    -0.80400
C791        C  0.15429337  0.58023916  0.44450882     0.79600
N792        N  0.17906502  0.57083707  0.45481558    -0.78700
C793        C  0.16982497  0.55839101  0.47468004     0.82000
N794        N  0.13489343  0.55559595  0.48448869    -0.78700
C795        C  0.10928519  0.56493057  0.47460180     0.82100
N796        N  0.11915701  0.57729132  0.45447219    -0.80400
C797        C  0.10475175  0.71763738  0.55344491     0.79600
N798        N  0.13828647  0.74320263  0.54053611    -0.78700
C799        C  0.14118570  0.73243947  0.52106152     0.82000
N800        N  0.11018762  0.69517972  0.51462412    -0.78700
C801        C  0.07669337  0.66893932  0.52747777     0.82100
N802        N  0.07423060  0.67979944  0.54710404    -0.80400
C803        C  0.32928353  0.83726647  0.43661987     0.79600
N804        N  0.36041512  0.87543265  0.44213167    -0.78700
C805        C  0.35909248  0.88833039  0.46140025     0.82000
N806        N  0.32598676  0.86352125  0.47487411    -0.78700
C807        C  0.29440579  0.82553829  0.46924785     0.82100
N808        N  0.29638319  0.81285026  0.45005509    -0.80400
C809        C  0.48079792  0.86673242  0.55596340     0.79600
N810        N  0.47881492  0.83733200  0.54218443    -0.78700
C811        C  0.46874317  0.83892652  0.52298631     0.82000
N812        N  0.46174751  0.87138573  0.51751183    -0.78700
C813        C  0.46324545  0.90082257  0.53114812     0.82100
N814        N  0.47360360  0.89867016  0.55009471    -0.80400
C815        C  0.46379896  0.69267267  0.43058647     0.79600
N816        N  0.46708090  0.72225876  0.44450268    -0.78700
C817        C  0.97817138  0.72041010  0.46338212     0.82000
N818        N  0.98522564  0.68775541  0.46847124    -0.78700
C819        C  0.98232759  0.65808452  0.45462325     0.82100
N820        N  0.97080989  0.66032287  0.43602406    -0.80400
O821        O  0.50408061  0.97374832  0.52172873    -0.81500
O822        O  0.00807403  0.61367416  0.46683900    -0.66200
O823        O  0.48186228  0.53416570  0.51089530    -1.12800
C824        C  0.39003880  0.93133316  0.46697776     1.05400
O825        O  0.44128022  0.58445942  0.46154156    -0.79400
O826        O  0.38087541  0.51430036  0.48145120    -0.67000
Ni827      Ni  0.02205782  0.53407479  0.52620342     1.34900
C828        C  0.37508399  0.50223541  0.49997714     0.84100
O829        O  0.03406203  0.62276575  0.50365690    -0.80000
O830        O  0.04210741  0.59378147  0.53187087    -0.90200
C831        C  0.47751311  0.61684175  0.46137989     0.83700
O832        O  0.06560896  0.54939398  0.50485366    -0.68400
O833        O  0.39620155  0.96322616  0.45580819    -0.87700
C834        C  0.07119779  0.56098914  0.48621024     0.84500
C835        C  0.04823675  0.62590755  0.52086117     1.06100
H836        H  0.47880227  0.51737169  0.46536345     0.37900
O837        O  0.46169476  0.52386211  0.47489987    -1.10400
O838        O  0.39818175  0.49059166  0.50828001    -0.67000
Ni839      Ni  0.44515523  0.98388712  0.49724837     1.26300
O840        O  0.04590384  0.56895134  0.47767442    -0.67300
O841        O  0.40735273  0.93483655  0.48320822    -0.79500
C842        C  0.46740158  0.94181513  0.52398097     0.83900
O843        O  0.43631239  0.94499081  0.51945220    -0.66700
Ni844      Ni  0.42096622  0.52359392  0.45946194     1.27400
Ni845      Ni  0.99798884  0.57411928  0.48872414     1.26100
H846        H  0.46493846  0.54064936  0.52056123     0.38400
C847        C  0.28324132  0.87755678  0.76687775     0.79600
N848        N  0.28667457  0.84185797  0.77041994    -0.78700
C849        C  0.29580583  0.83469220  0.78906474     0.82000
N850        N  0.30289471  0.86397930  0.80371547    -0.78700
C851        C  0.29976047  0.89953076  0.80012005     0.82100
N852        N  0.29024890  0.90594007  0.78172772    -0.80400
C853        C  0.36360171  0.57941220  0.88204963     0.79600
N854        N  0.35381730  0.54538358  0.86997897    -0.78700
C855        C  0.33879761  0.54392427  0.85188301     0.82000
N856        N  0.33382647  0.57715460  0.84587434    -0.78700
C857        C  0.34437042  0.61196056  0.85751818     0.82100
N858        N  0.35923179  0.61309412  0.87573502    -0.80400
C859        C  0.18391825  0.56637279  0.76873820     0.79600
N860        N  0.21226374  0.60145091  0.77834801    -0.78700
C861        C  0.20567034  0.60392828  0.79883692     0.82000
N862        N  0.17169180  0.57182780  0.80920951    -0.78700
C863        C  0.14326905  0.53781754  0.79984886     0.82100
N864        N  0.14957094  0.03596018  0.77927989    -0.80400
C865        C  0.44612292  0.88272825  0.87238746     0.79600
N866        N  0.98363443  0.91136594  0.86292145    -0.78700
C867        C  0.49366083  0.90586169  0.84321604     0.82000
N868        N  0.46740205  0.87014420  0.83397114    -0.78700
C869        C  0.43119797  0.83990576  0.84370023     0.82100
N870        N  0.42019392  0.84592045  0.86313239    -0.80400
C871        C  0.13019970  0.69222298  0.88479567     0.79600
N872        N  0.16582472  0.69421412  0.87678592    -0.78700
C873        C  0.17963718  0.70627805  0.85699530     0.82000
N874        N  0.15650349  0.71475880  0.84491241    -0.78700
C875        C  0.12005377  0.71196846  0.85263615     0.82100
N876        N  0.10714686  0.70050997  0.87259789    -0.80400
C877        C  0.51739101  0.76249893  0.76464791     0.79600
N878        N  0.47921084  0.75638509  0.77071368    -0.78700
C879        C  0.46006574  0.73805471  0.78916965     0.82000
N880        N  0.47986134  0.72625666  0.80195871    -0.78700
C881        C  0.51805150  0.73146844  0.79591970     0.82100
N882        N  0.03642979  0.74958622  0.77759357    -0.80400
O883        O  0.34511836  0.81468575  0.79434644    -0.81500
O884        O  0.35844117  0.68314590  0.84858830    -0.66200
O885        O  0.33635256  0.73466794  0.80431044    -1.12800
C886        C  0.21619387  0.70372813  0.84847672     1.05400
O887        O  0.29461559  0.62842523  0.84801891    -0.79400
O888        O  0.23357584  0.62804192  0.82935406    -0.67000
Ni889      Ni  0.37689534  0.78570368  0.79028631     1.34900
C890        C  0.23404080  0.63900793  0.81110369     0.84100
O891        O  0.40109435  0.71855914  0.81264679    -0.80000
O892        O  0.41213757  0.76108077  0.78523489    -0.90200
C893        C  0.33210005  0.64336265  0.85173295     0.83700
O894        O  0.40558174  0.81409633  0.81296991    -0.68400
O895        O  0.22461157  0.67856409  0.85807283    -0.87700
C896        C  0.40366980  0.80438045  0.83156965     0.84500
C897        C  0.42171283  0.73851348  0.79608673     1.06100
H898        H  0.30824936  0.72840780  0.84990237     0.37900
O899        O  0.30072464  0.70759324  0.83937849    -1.10400
O900        O  0.25485495  0.67775743  0.80412581    -0.67000
Ni901      Ni  0.28711804  0.73138431  0.81760433     1.26300
O902        O  0.38137065  0.76638598  0.83927328    -0.67300
O903        O  0.23694155  0.72530509  0.83216186    -0.79500
C904        C  0.30707330  0.80138156  0.79249413     0.83900
O905        O  0.27963729  0.76199597  0.79600995    -0.66700
Ni906      Ni  0.26094819  0.65533466  0.85252927     1.27400
Ni907      Ni  0.35034902  0.71191545  0.82643160     1.26100
H908        H  0.32816983  0.71304719  0.79415097     0.38400
O909        O  0.51003777  0.63819335  0.01537549    -0.81500
O910        O  0.45976009  0.98979161  0.95075652    -0.66200
O911        O  0.46702651  0.55872976  0.99606338    -1.12800
C912        C  0.03719763  0.49811827  0.02466296     1.05400
O913        O  0.45079781  0.93216317  0.96773807    -0.79400
O914        O  0.43266855  0.94317467  0.00792144    -0.67000
Ni915      Ni  0.48402851  0.61831070  0.99021619     1.34900
C916        C  0.43285067  0.96393792  0.02366826     0.84100
O917        O  0.42531548  0.53638201  0.96129326    -0.80000
O918        O  0.45779897  0.60713709  0.96501297    -0.90200
C919        C  0.45081647  0.95063997  0.95138296     0.83700
O920        O  0.03543241  0.62935842  0.97577263    -0.68400
O921        O  0.01212269  0.96517206  0.01576239    -0.87700
C922        C  0.03760633  0.60926028  0.96010807     0.84500
C923        C  0.43286912  0.57377046  0.95604664     1.06100
H924        H  0.02700518  0.52392196  0.97764072     0.37900
O925        O  0.50064227  0.51213260  0.98568709    -1.10400
O926        O  0.46108956  0.00285551  0.02544917    -0.67000
Ni927      Ni  0.50586486  0.54749461  0.00813354     1.26300
O928        O  0.00985836  0.57061438  0.95721130    -0.67300
O929        O  0.04480721  0.53558071  0.01939772    -0.79500
C930        C  0.51489959  0.62047983  0.03077502     0.83900
O931        O  0.51110034  0.58334763  0.03019780    -0.66700
Ni932      Ni  0.48146862  0.95255488  0.99148888     1.27400
Ni933      Ni  0.46322117  0.52432612  0.97324234     1.26100
H934        H  0.44068482  0.54565075  0.00419867     0.38400
O935        O  0.06555434  0.90811476  0.64309725    -0.81500
O936        O  0.21326871  0.92401944  0.69115547    -0.66200
O937        O  0.14430682  0.92835364  0.65346236    -1.12800
C938        C  0.13641290  0.80296947  0.62834690     1.05400
O939        O  0.24196088  0.89043321  0.67366316    -0.79400
O940        O  0.23011414  0.90660466  0.63401385    -0.67000
Ni941      Ni  0.09960954  0.93635592  0.66510198     1.34900
C942        C  0.20998722  0.90992148  0.62012682     0.84100
O943        O  0.19365887  0.98342036  0.68202077    -0.80000
O944        O  0.12876253  0.96968843  0.68766296    -0.90200
C945        C  0.23664797  0.90750304  0.68980146     0.83700
O946        O  0.07694280  0.88350455  0.68103484    -0.68400
O947        O  0.17431431  0.82145134  0.63195565    -0.87700
C948        C  0.09670254  0.87759142  0.69433336     0.84500
C949        C  0.16670814  0.99100012  0.69126037     1.06100
H950        H  0.14668435  0.84904533  0.67399048     0.37900
O951        O  0.16321758  0.87053540  0.66337748    -1.10400
O952        O  0.17087157  0.89499117  0.62263827    -0.67000
Ni953      Ni  0.12763316  0.87098447  0.64474849     1.26300
O954        O  0.13592419  0.90047280  0.69410126    -0.67300
O955        O  0.11146185  0.81391344  0.63690365    -0.79500
C956        C  0.06730519  0.88673575  0.62787736     0.83900
O957        O  0.09178462  0.87160893  0.62603768    -0.66700
Ni958      Ni  0.20594753  0.85842131  0.65291943     1.27400
Ni959      Ni  0.17941601  0.92730325  0.67247317     1.26100
H960        H  0.16034845  0.94979336  0.64275063     0.38400
C961        C  0.51633342  0.78422643  0.72919545    -0.20900
C962        C  0.03931121  0.78792961  0.74595752    -0.07500
C963        C  0.08104719  0.82118432  0.74511834     0.13400
C964        C  0.09823741  0.84897732  0.72798566    -0.21000
C965        C  0.07516606  0.84525192  0.71149763    -0.07500
C966        C  0.03370313  0.81111473  0.71206951     0.13400
C967        C  0.00737264  0.80380493  0.69477771    -0.24300
H968        H  0.48406162  0.75927848  0.73000229     0.14600
H969        H  0.13006002  0.87475547  0.72784110     0.14700
C970        C  0.10733601  0.82950379  0.76257790    -0.24300
H971        H  0.47586026  0.77711470  0.69782706     0.04900
H972        H  0.02276242  0.79930176  0.68059445     0.08100
H973        H  0.00241141  0.83169854  0.69276417     0.08100
H974        H  0.11210421  0.80167200  0.76518901     0.08100
H975        H  0.09214234  0.83516165  0.77651117     0.08100
H976        H  0.13844656  0.85833848  0.75954526     0.04900
C977        C  0.09266140  0.70250137  0.81880603    -0.20900
C978        C  0.09245875  0.71623684  0.83877806    -0.07500
C979        C  0.06557666  0.73267713  0.84487903     0.13400
C980        C  0.04085534  0.73590828  0.83079483    -0.21000
C981        C  0.04193115  0.72314311  0.81073483    -0.07500
C982        C  0.06776098  0.70550812  0.80478788     0.13400
C983        C  0.06836178  0.68844633  0.78390769    -0.24300
H984        H  0.11222496  0.68882939  0.81412575     0.14600
H985        H  0.52211875  0.75079051  0.83495727     0.14700
C986        C  0.06343858  0.74821500  0.86593488    -0.24300
H987        H  0.08761689  0.67254893  0.78249269     0.04900
H988        H  0.08163718  0.71511391  0.77228450     0.08100
H989        H  0.03637248  0.66425141  0.78074247     0.08100
H990        H  0.09490312  0.77293142  0.86955328     0.08100
H991        H  0.05011605  0.72062854  0.87706845     0.08100
H992        H  0.54463614  0.76478888  0.86697895     0.04900
C993        C  0.08112687  0.67620151  0.93900555    -0.20900
C994        C  0.07008848  0.63309820  0.94322083    -0.07500
C995        C  0.08502780  0.61233237  0.92933041     0.13400
C996        C  0.10698998  0.63373381  0.91089335    -0.21000
C997        C  0.11357750  0.67482184  0.90577503    -0.07500
C998        C  0.10224657  0.69710627  0.92035851     0.13400
C999        C  0.11228193  0.74282615  0.91630146    -0.24300
H1000       H  0.07045905  0.69261756  0.94967832     0.14600
H1001       H  0.11697223  0.61726949  0.89989009     0.14700
C1002       C  0.07779829  0.56761077  0.93366242    -0.24300
H1003       H  0.10263662  0.75596971  0.92963973     0.04900
H1004       H  0.09590684  0.74433970  0.90343073     0.08100
H1005       H  0.14620223  0.76359908  0.91264434     0.08100
H1006       H  0.04452333  0.54344969  0.93346555     0.08100
H1007       H  0.08842797  0.56619511  0.94866573     0.08100
H1008       H  0.09515885  0.55842452  0.92208294     0.04900
C1009       C  0.43308929  0.94533097  0.91563512    -0.20900
C1010       C  0.44066227  0.92645910  0.93217411    -0.07500
C1011       C  0.44186365  0.88750252  0.92918283     0.13400
C1012       C  0.43919087  0.87114101  0.90958485    -0.21000
C1013       C  0.43562836  0.89260635  0.89297121    -0.07500
C1014       C  0.43085987  0.92910621  0.89613446     0.13400
C1015       C  0.42425047  0.95155337  0.87881784    -0.24300
H1016       H  0.43066684  0.97418520  0.91771510     0.14600
H1017       H  0.44287811  0.84315048  0.90695072     0.14700
C1018       C  0.44810505  0.86390078  0.94609226    -0.24300
H1019       H  0.41984631  0.97881309  0.88403236     0.04900
H1020       H  0.39611681  0.92830117  0.87162410     0.08100
H1021       H  0.45139074  0.96464915  0.86732614     0.08100
H1022       H  0.92193621  0.35300827  0.95916521     0.08100
H1023       H  0.47830683  0.88495460  0.95222670     0.08100
H1024       H  0.44832037  0.83437484  0.94080839     0.04900
C1025       C  0.09079820  0.96184131  0.80623766    -0.20900
C1026       C  0.10563477  0.00488743  0.81132163    -0.07500
C1027       C  0.08453021  0.01476530  0.82747029     0.13400
C1028       C  0.04868801  0.98134075  0.83771112    -0.21000
C1029       C  0.03340227  0.93826029  0.83248994    -0.07500
C1030       C  0.05514167  0.92828381  0.81664464     0.13400
C1031       C  0.04199469  0.88259007  0.81082815    -0.24300
H1032       H  0.10748473  0.95438513  0.79411795     0.14600
H1033       H  0.03208889  0.98910949  0.84973974     0.14700
C1034       C  0.10024786  0.55954827  0.83486771    -0.24300
H1035       H  0.06489416  0.88108089  0.79944917     0.04900
H1036       H  0.51222219  0.86852164  0.80388345     0.08100
H1037       H  0.03907483  0.86293966  0.82441320     0.08100
H1038       H  0.10302870  0.58035267  0.82179445     0.08100
H1039       H  0.13059143  0.57245920  0.84125568     0.08100
H1040       H  0.07845378  0.56120327  0.84689671     0.04900
C1041       C  0.16082396  0.06070917  0.73417501    -0.20900
C1042       C  0.18963125  0.55986309  0.74681814    -0.07500
C1043       C  0.21490092  0.54251804  0.73958292     0.13400
C1044       C  0.20977113  0.02507923  0.72017837    -0.21000
C1045       C  0.17818481  0.02109176  0.70850169    -0.07500
C1046       C  0.15497359  0.04144808  0.71519129     0.13400
C1047       C  0.12356337  0.04272410  0.70265548    -0.24300
H1048       H  0.14093919  0.07333824  0.73994929     0.14600
H1049       H  0.22808720  0.01017540  0.71517704     0.15300
C1050       C  0.24551762  0.54122598  0.75264477    -0.24300
H1051       H  0.11164117  0.06357540  0.70935445     0.04900
H1052       H  0.09648372  0.01005782  0.70180808     0.08100
H1053       H  0.13813041  0.05596667  0.68715949     0.08100
H1054       H  0.22909321  0.52212413  0.76689593     0.08100
H1055       H  0.26839416  0.57452879  0.75641677     0.08100
H1056       H  0.26266039  0.52629480  0.74482957     0.04900
C1057       C  0.37512387  0.54391132  0.93386610    -0.20900
C1058       C  0.41365323  0.57839314  0.93813442    -0.07500
C1059       C  0.43457711  0.61416425  0.92412271     0.13400
C1060       C  0.41639207  0.61432704  0.90641233    -0.21000
C1061       C  0.37872525  0.57922604  0.90192588    -0.07500
C1062       C  0.35756060  0.54364316  0.91589833     0.13400
C1063       C  0.31626709  0.50546283  0.91211407    -0.24300
H1064       H  0.35903354  0.51646304  0.94446875     0.14600
H1065       H  0.43264468  0.64117430  0.89548557     0.14700
C1066       C  0.47724483  0.65100516  0.92687014    -0.24300
H1067       H  0.30306851  0.48200054  0.92523848     0.04900
H1068       H  0.31978371  0.48816131  0.89875847     0.08100
H1069       H  0.29385340  0.51648704  0.90945614     0.08100
H1070       H  0.49818957  0.13830842  0.92802895     0.08100
H1071       H  0.47640802  0.66847586  0.94069198     0.08100
H1072       H  0.48965480  0.67469190  0.91383990     0.04900
C1073       C  0.35041106  0.98475188  0.83907449    -0.20900
C1074       C  0.32751430  0.50596886  0.83913000    -0.07500
C1075       C  0.29284643  0.48896202  0.82756617     0.13400
C1076       C  0.28373961  0.45261077  0.81615687    -0.21000
C1077       C  0.30753234  0.93250069  0.81543719    -0.07500
C1078       C  0.34207791  0.94926542  0.82698659     0.13400
C1079       C  0.37146885  0.93153852  0.82583080    -0.24300
H1080       H  0.37707540  0.99781220  0.84783830     0.14600
H1081       H  0.25697725  0.43937929  0.80749406     0.14700
C1082       C  0.26488374  0.50833204  0.82716227    -0.24300
H1083       H  0.39812713  0.95022745  0.83492435     0.04900
H1084       H  0.38402561  0.93304808  0.80985353     0.08100
H1085       H  0.35508368  0.89764579  0.83176483     0.08100
H1086       H  0.28218843  0.54106442  0.81984634     0.08100
H1087       H  0.25267297  0.50994539  0.84283883     0.08100
H1088       H  0.23796223  0.48897215  0.81830364     0.04900
C1089       C  0.23995684  0.91557793  0.72678730    -0.20900
C1090       C  0.25508440  0.90524782  0.70864170    -0.07500
C1091       C  0.28205696  0.88795956  0.70979485     0.13400
C1092       C  0.29050769  0.87893722  0.72897795    -0.21000
C1093       C  0.27332579  0.88724666  0.74699715    -0.07500
C1094       C  0.24839282  0.90682341  0.74576440     0.13400
C1095       C  0.22896945  0.91750080  0.76427504    -0.24300
H1096       H  0.21980444  0.92935317  0.72632951     0.14600
H1097       H  0.31076827  0.86540129  0.72992220     0.14700
C1098       C  0.30234757  0.87907234  0.69112140    -0.24300
H1099       H  0.20691135  0.92814359  0.76030739     0.04900
H1100       H  0.25332185  0.94455985  0.77208086     0.08100
H1101       H  0.21156396  0.88872187  0.77469378     0.08100
H1102       H  0.31949902  0.90869870  0.68121394     0.08100
H1103       H  0.27869454  0.85256628  0.68272986     0.08100
H1104       H  0.32486621  0.86900963  0.69501099     0.04900
C1105       C  0.49958555  0.79449831  0.50894576    -0.20900
C1106       C  0.47047501  0.80854916  0.50759307    -0.07500
C1107       C  0.44410684  0.79330740  0.49165058     0.13400
C1108       C  0.44770850  0.76502853  0.47769040    -0.21000
C1109       C  0.47679235  0.75097814  0.47899857    -0.07500
C1110       C  0.50319562  0.76617882  0.49493958     0.13400
C1111       C  0.03636804  0.75382300  0.49690884    -0.24300
H1112       H  0.52017649  0.80622573  0.52095441     0.14600
H1113       H  0.42695487  0.75321003  0.46575889     0.14700
C1114       C  0.41096446  0.80528011  0.48953701    -0.24300
H1115       H  0.55572769  0.77108508  0.50945676     0.04900
H1116       H  0.05694681  0.76223793  0.48258395     0.08100
H1117       H  0.52164114  0.71890462  0.50060513     0.08100
H1118       H  0.42529685  0.84022766  0.48578125     0.08100
H1119       H  0.39047763  0.79699189  0.50388763     0.08100
H1120       H  0.39126500  0.78782556  0.47719372     0.04900
C1121       C  0.01621701  0.83939134  0.60392505    -0.20900
C1122       C  0.04106309  0.88081012  0.61106965    -0.07500
C1123       C  0.54331293  0.91712735  0.60084100     0.13400
C1124       C  0.52164430  0.91066179  0.58362430    -0.21000
C1125       C  0.49834491  0.86949274  0.57582841    -0.07500
C1126       C  0.99417971  0.83304612  0.58668601     0.13400
C1127       C  0.96570408  0.78765311  0.58068463    -0.24300
H1128       H  0.01421113  0.81188822  0.61184024     0.14600
H1129       H  0.52452389  0.93855567  0.57569819     0.14700
C1130       C  0.56989899  0.96249438  0.60747252    -0.24300
H1131       H  0.96369737  0.76350402  0.59184510     0.04900
H1132       H  0.97719646  0.78132840  0.56577212     0.08100
H1133       H  0.93398544  0.78272477  0.57993409     0.08100
H1134       H  0.10238207  0.96912958  0.60755497     0.08100
H1135       H  0.55877628  0.96605504  0.62306617     0.08100
H1136       H  0.56893150  0.98663331  0.59740425     0.04900
C1137       C  0.24276820  0.82361774  0.49610642    -0.20900
C1138       C  0.25604790  0.80071072  0.48302968    -0.07500
C1139       C  0.23125336  0.75524005  0.48265624     0.13400
C1140       C  0.19387453  0.73436368  0.49507649    -0.21000
C1141       C  0.18036471  0.75732699  0.50794128    -0.07500
C1142       C  0.20526729  0.80266857  0.50850100     0.13400
C1143       C  0.19203157  0.82953534  0.52147002    -0.24300
H1144       H  0.26138391  0.85840363  0.49627589     0.14600
H1145       H  0.17525012  0.69956539  0.49491641     0.14700
C1146       C  0.24414986  0.72803113  0.46973117    -0.24300
H1147       H  0.21367519  0.86458401  0.51866899     0.04900
H1148       H  0.19156610  0.82235612  0.53778424     0.08100
H1149       H  0.16077042  0.82281848  0.51802272     0.08100
H1150       H  0.27568134  0.73512107  0.47286466     0.08100
H1151       H  0.24367728  0.73437470  0.45341753     0.08100
H1152       H  0.22278677  0.69302150  0.47288380     0.04900
C1153       C  0.13285517  0.72767428  0.58650413    -0.20900
C1154       C  0.10455361  0.72992100  0.57463087    -0.07500
C1155       C  0.08288667  0.75111301  0.58178626     0.13400
C1156       C  0.09116340  0.77102140  0.60048943    -0.21000
C1157       C  0.12225026  0.77219836  0.61168637    -0.07500
C1158       C  0.14236598  0.74883503  0.60488421     0.13400
C1159       C  0.17440471  0.74655262  0.61651205    -0.24300
H1160       H  0.14951191  0.71147231  0.58070268     0.14600
H1161       H  0.07569492  0.78890473  0.60546932     0.14700
C1162       C  0.05330900  0.75538778  0.56906421    -0.24300
H1163       H  0.18382209  0.72372776  0.60977369     0.04900
H1164       H  0.16156839  0.73530579  0.63241602     0.08100
H1165       H  0.20280096  0.77855366  0.61624416     0.08100
H1166       H  0.02768989  0.72293576  0.56599360     0.08100
H1167       H  0.06990784  0.77264352  0.55444457     0.08100
H1168       H  0.03964836  0.77380267  0.57680211     0.04900
C1169       C  0.21121836  0.50185149  0.50687549    -0.20900
C1170       C  0.25432862  0.52635451  0.50171919    -0.07500
C1171       C  0.26938220  0.56217957  0.48800813     0.13400
C1172       C  0.24111576  0.57212990  0.47983331    -0.21000
C1173       C  0.19799741  0.54758562  0.48504203    -0.07500
C1174       C  0.18300844  0.51174031  0.49872643     0.13400
C1175       C  0.13725556  0.48255042  0.50421612    -0.24300
H1176       H  0.19930180  0.47418718  0.51726752     0.14600
H1177       H  0.25286552  0.59956671  0.46931453     0.14700
C1178       C  0.31514107  0.59090686  0.48241478    -0.24300
H1179       H  0.13103844  0.45466887  0.51411954     0.04900
H1180       H  0.12134320  0.46971324  0.49024075     0.08100
H1181       H  0.12386314  0.50054894  0.51257750     0.08100
H1182       H  0.32821082  0.57246591  0.47419542     0.08100
H1183       H  0.33119892  0.60389484  0.49633866     0.08100
H1184       H  0.32150194  0.61864064  0.47236448     0.04900
C1185       C  0.23158400  0.93434323  0.56310842    -0.20900
C1186       C  0.27431583  0.46228947  0.56106076    -0.07500
C1187       C  0.29678067  0.47184495  0.57830177     0.13400
C1188       C  0.27503705  0.95531586  0.59751519    -0.21000
C1189       C  0.23161437  0.92839589  0.59970128    -0.07500
C1190       C  0.20984997  0.91706486  0.58195410     0.13400
C1191       C  0.16384683  0.88613663  0.58220581    -0.24300
H1192       H  0.21474885  0.92620078  0.54967524     0.14600
H1193       H  0.29237722  0.46223890  0.61076022     0.14700
C1194       C  0.34298648  0.50127965  0.57662857    -0.24300
H1195       H  0.15334657  0.87942550  0.56670078     0.04900
H1196       H  0.14607301  0.89990536  0.59042824     0.08100
H1197       H  0.15627774  0.85489313  0.58937982     0.08100
H1198       H  0.35075578  0.53321879  0.57011543     0.08100
H1199       H  0.35835132  0.48710150  0.56669124     0.08100
H1200       H  0.35555117  0.50618395  0.59165690     0.04900
C1201       C  0.43380415  0.65264505  0.39963649    -0.20900
C1202       C  0.44660847  0.69063374  0.41063043    -0.07500
C1203       C  0.44067187  0.72378312  0.40261975     0.13400
C1204       C  0.41907440  0.71627772  0.38522586    -0.21000
C1205       C  0.40435592  0.67732065  0.37512746    -0.07500
C1206       C  0.41310047  0.64572039  0.38203866     0.13400
C1207       C  0.39887483  0.60367889  0.37154288    -0.24300
H1208       H  0.93694887  0.62597873  0.40552447     0.14600
H1209       H  0.41312071  0.74089981  0.37955288     0.14700
C1210       C  0.45719176  0.76734728  0.41188272    -0.24300
H1211       H  0.40698666  0.58191516  0.37943400     0.04900
H1212       H  0.41399462  0.60988488  0.35582416     0.08100
H1213       H  0.36469364  0.58675336  0.37115164     0.08100
H1214       H  0.49105677  0.78192779  0.41291859     0.08100
H1215       H  0.44115844  0.76437016  0.42714938     0.08100
H1216       H  0.45220053  0.78989270  0.40262370     0.04900
C1217       C  0.31141568  0.83106790  0.40132762    -0.20900
C1218       C  0.33053710  0.82162762  0.41625029    -0.07500
C1219       C  0.34540204  0.79262833  0.41245511     0.13400
C1220       C  0.34003048  0.77276767  0.39378523    -0.21000
C1221       C  0.31877777  0.78013368  0.37915223    -0.07500
C1222       C  0.30503339  0.81040587  0.38276951     0.13400
C1223       C  0.28364686  0.82104228  0.36727674    -0.24300
H1224       H  0.29980523  0.85320120  0.40459061     0.14600
H1225       H  0.35016857  0.74927438  0.39114285     0.14700
C1226       C  0.36520815  0.78119199  0.42846400    -0.24300
H1227       H  0.27787398  0.84761612  0.37215809     0.04900
H1228       H  0.25315211  0.79262582  0.36505412     0.08100
H1229       H  0.30332258  0.83135201  0.35263999     0.08100
H1230       H  0.34315572  0.76725994  0.44223378     0.08100
H1231       H  0.39352085  0.81051986  0.43250287     0.08100
H1232       H  0.37397886  0.75698762  0.42313045     0.04900
C1233       C  0.18635508  0.57269529  0.41138915    -0.20900
C1234       C  0.16660304  0.59248054  0.42244506    -0.07500
C1235       C  0.16453895  0.62658170  0.41289245     0.13400
C1236       C  0.18253001  0.64005573  0.39279630    -0.21000
C1237       C  0.20448958  0.62195977  0.38233781    -0.07500
C1238       C  0.20614712  0.58761923  0.39178933     0.13400
C1239       C  0.22941559  0.56706902  0.38146643    -0.24300
H1240       H  0.18810177  0.54653041  0.41855215     0.14600
H1241       H  0.18219185  0.66716773  0.38576422     0.14700
C1242       C  0.14659816  0.65121990  0.42426307    -0.24300
H1243       H  0.22579013  0.53929498  0.39061483     0.04900
H1244       H  0.26302151  0.59074453  0.37927367     0.08100
H1245       H  0.21756295  0.55523522  0.36653152     0.08100
H1246       H  0.16327778  0.66489370  0.43796758     0.08100
H1247       H  0.11317596  0.62956036  0.42882597     0.08100
H1248       H  0.14954596  0.67834004  0.41484073     0.04900
C1249       C  0.35906098  0.88010153  0.06478252    -0.20900
C1250       C  0.35523337  0.90664721  0.07953063    -0.07500
C1251       C  0.37341511  0.95120226  0.07504168     0.13400
C1252       C  0.39607171  0.96834105  0.05614528    -0.21000
C1253       C  0.40154138  0.94219912  0.04149250    -0.07500
C1254       C  0.38162552  0.89703569  0.04579635     0.13400
C1255       C  0.38500655  0.86633646  0.03096626    -0.24300
H1256       H  0.34495685  0.84589179  0.06835250     0.14600
H1257       H  0.41098570  0.00281964  0.05313924     0.14700
C1258       C  0.37097749  0.98109314  0.09062112    -0.24300
H1259       H  0.36791604  0.83254359  0.03709086     0.04900
H1260       H  0.41788907  0.87494121  0.02748794     0.08100
H1261       H  0.37155948  0.86738653  0.01678394     0.08100
H1262       H  0.38519902  0.97898325  0.10432777     0.08100
H1263       H  0.33811943  0.97192150  0.09483451     0.08100
H1264       H  0.38770482  0.01516333  0.08487020     0.04900
C1265       C  0.36586535  0.80540904  0.17240735    -0.20900
C1266       C  0.40904328  0.83320676  0.17169163    -0.07500
C1267       C  0.42766361  0.86882598  0.15757937     0.13400
C1268       C  0.40290673  0.87526681  0.14469562    -0.21000
C1269       C  0.35988251  0.84758096  0.14543004    -0.07500
C1270       C  0.34110104  0.81204355  0.15951060     0.13400
C1271       C  0.29531319  0.78015171  0.16061920    -0.24300
H1272       H  0.35133311  0.77790324  0.18300407     0.14600
H1273       H  0.41732152  0.90279797  0.13410499     0.14700
C1274       C  0.47332994  0.90131183  0.15631438    -0.24300
H1275       H  0.28647682  0.75285013  0.17149707     0.04900
H1276       H  0.28668218  0.76669846  0.14546398     0.08100
H1277       H  0.27719876  0.79606226  0.16579792     0.08100
H1278       H  0.99182336  0.88654001  0.15132076     0.08100
H1279       H  0.98188062  0.91476474  0.17215304     0.08100
H1280       H  0.48159463  0.92872625  0.14561165     0.04900
C1281       C  0.43654874  0.75142894  0.24672120    -0.20900
C1282       C  0.41619965  0.76991191  0.23707809    -0.07500
C1283       C  0.37809176  0.76395280  0.24658767     0.13400
C1284       C  0.36072230  0.73802502  0.26443869    -0.21000
C1285       C  0.38018183  0.71802575  0.27348273    -0.07500
C1286       C  0.41937899  0.72604361  0.26476588     0.13400
C1287       C  0.44291659  0.70712389  0.27391907    -0.24300
H1288       H  0.46600159  0.75604466  0.23992742     0.14600
H1289       H  0.33112053  0.73291434  0.27132397     0.14700
C1290       C  0.35544067  0.78500809  0.23847280    -0.24300
H1291       H  0.47271942  0.71622055  0.26485075     0.04900
H1292       H  0.42416123  0.67141788  0.27465908     0.08100
H1293       H  0.45025261  0.71924360  0.28938845     0.08100
H1294       H  0.34459728  0.77211845  0.22352835     0.08100
H1295       H  0.37620188  0.82045250  0.23706454     0.08100
H1296       H  0.32761395  0.77870733  0.24865433     0.04900
C1297       C  0.29615943  0.52557662  0.26899740    -0.20900
C1298       C  0.27203102  0.54528168  0.27411812    -0.07500
C1299       C  0.24193972  0.54059567  0.26085510     0.13400
C1300       C  0.23965078  0.52003215  0.24235919    -0.21000
C1301       C  0.26679460  0.50456855  0.23655022    -0.07500
C1302       C  0.29401149  0.50555344  0.25038759     0.13400
C1303       C  0.32173060  0.98599990  0.24529630    -0.24300
H1304       H  0.31842789  0.52773512  0.27914130     0.14600
H1305       H  0.21908240  0.51947848  0.23155129     0.14700
C1306       C  0.21444977  0.56018621  0.26494384    -0.24300
H1307       H  0.34046782  0.98845997  0.25795456     0.04900
H1308       H  0.34339142  0.00292830  0.23172454     0.08100
H1309       H  0.30232825  0.95137214  0.24214418     0.08100
H1310       H  0.23394097  0.59561924  0.26523271     0.08100
H1311       H  0.19510120  0.54704510  0.27954248     0.08100
H1312       H  0.19308306  0.55318378  0.25293702     0.04900
C1313       C  0.40926817  0.58653553  0.14533046    -0.20900
C1314       C  0.42440394  0.62950160  0.15075454    -0.07500
C1315       C  0.40386222  0.63863759  0.16756952     0.13400
C1316       C  0.36898868  0.60459712  0.17822972    -0.21000
C1317       C  0.35395178  0.56181727  0.17268451    -0.07500
C1318       C  0.37459661  0.55259117  0.15609502     0.13400
C1319       C  0.36153168  0.50705088  0.15005659    -0.24300
H1320       H  0.42515850  0.57924026  0.13276582     0.14600
H1321       H  0.35294067  0.61150119  0.19087571     0.14700
C1322       C  0.41740811  0.68389227  0.17429923    -0.24300
H1323       H  0.38395186  0.50598733  0.13823964     0.04900
H1324       H  0.33101890  0.49234176  0.14372251     0.08100
H1325       H  0.35981873  0.48748476  0.16342012     0.08100
H1326       H  0.41894952  0.70432678  0.16135119     0.08100
H1327       H  0.94789470  0.69761869  0.18068743     0.08100
H1328       H  0.89537489  0.68448907  0.18683589     0.04900
C1329       C  0.51928209  0.68047258  0.05237043    -0.20900
C1330       C  0.52284723  0.64298173  0.05053248    -0.07500
C1331       C  0.53012360  0.62598223  0.06818224     0.13400
C1332       C  0.52795201  0.64320539  0.08711122    -0.21000
C1333       C  0.52047708  0.67787514  0.08896267    -0.07500
C1334       C  0.51828177  0.69819442  0.07136492     0.13400
C1335       C  0.51292698  0.73730008  0.07276751    -0.24300
H1336       H  0.51521495  0.69491668  0.03906187     0.14600
H1337       H  0.53061890  0.62848540  0.10074971     0.14700
C1338       C  0.53999691  0.58969785  0.06760164    -0.24300
H1339       H  0.51157149  0.74926357  0.05758320     0.04900
H1340       H  0.04030067  0.76359147  0.08010307     0.08100
H1341       H  0.48376261  0.72931888  0.08216641     0.08100
H1342       H  0.06546497  0.59642865  0.05673407     0.08100
H1343       H  0.51268759  0.55908152  0.06387154     0.08100
H1344       H  0.54862887  0.58401357  0.08247043     0.04900
C1345       C  0.16627199  0.69058547  0.25301070    -0.20900
C1346       C  0.19220045  0.69452224  0.23555950    -0.07500
C1347       C  0.22690302  0.68919808  0.23711985     0.13400
C1348       C  0.23455960  0.67943762  0.25610281    -0.21000
C1349       C  0.20837216  0.67457689  0.27372065    -0.07500
C1350       C  0.17387896  0.68063072  0.27215106     0.13400
C1351       C  0.14434527  0.67543243  0.29029813    -0.24300
H1352       H  0.13935002  0.69419290  0.25154558     0.14600
H1353       H  0.26182923  0.67626382  0.25716490     0.14700
C1354       C  0.25655585  0.69480622  0.21887610    -0.24300
H1355       H  0.11768355  0.67843274  0.28595499     0.04900
H1356       H  0.16044441  0.70079677  0.30125450     0.08100
H1357       H  0.13194116  0.64311089  0.29771706     0.08100
H1358       H  0.26881603  0.72722694  0.21159193     0.08100
H1359       H  0.24060649  0.66981464  0.20775665     0.08100
H1360       H  0.28330394  0.69181088  0.22309286     0.04900
C1361       C  0.16727395  0.60903878  0.17209508    -0.20900
C1362       C  0.14862554  0.63449554  0.16979565    -0.07500
C1363       C  0.11969816  0.62338633  0.15508875     0.13400
C1364       C  0.11050436  0.58737010  0.14329266    -0.21000
C1365       C  0.12853575  0.56142204  0.14593602    -0.07500
C1366       C  0.15745011  0.57256919  0.16065828     0.13400
C1367       C  0.17882859  0.54704319  0.16447983    -0.24300
H1368       H  0.18966391  0.61747824  0.18316522     0.14600
H1369       H  0.08827484  0.57891373  0.13212811     0.14700
C1370       C  0.09708361  0.64792725  0.15203287    -0.24300
H1371       H  0.20206932  0.56226868  0.17571554     0.04900
H1372       H  0.19537840  0.54476837  0.15017828     0.08100
H1373       H  0.15581660  0.51435950  0.17074914     0.08100
H1374       H  0.11939901  0.68137280  0.14645249     0.08100
H1375       H  0.07992455  0.64827383  0.16652271     0.08100
H1376       H  0.07416903  0.63305163  0.14062277     0.04900
C1377       C  0.05224253  0.95553728  0.07375584    -0.20900
C1378       C  0.08403284  0.99327053  0.08098980    -0.07500
C1379       C  0.10408014  0.53082500  0.06843473     0.13400
C1380       C  0.09003616  0.53027147  0.04939808    -0.21000
C1381       C  0.05582852  0.49338631  0.04279024    -0.07500
C1382       C  0.03735109  0.95529812  0.05500027     0.13400
C1383       C  0.49997651  0.91366641  0.04886647    -0.24300
H1384       H  0.03754849  0.92641381  0.08333750     0.14600
H1385       H  0.10492537  0.55956235  0.03994823     0.14700
C1386       C  0.14021455  0.57191034  0.07479606    -0.24300
H1387       H  0.48964914  0.88733395  0.06051605     0.04900
H1388       H  0.50776825  0.90224583  0.03438307     0.08100
H1389       H  0.47384234  0.41898058  0.04768000     0.08100
H1390       H  0.16437472  0.06664363  0.07935542     0.08100
H1391       H  0.12998942  0.58518197  0.08784704     0.08100
H1392       H  0.15369308  0.59711081  0.06240504     0.04900
C1393       C  0.59531331  0.49095504  0.10147698     0.79600
N1394       N  0.59836496  0.45657072  0.10776256    -0.78700
C1395       C  0.61042910  0.45578661  0.12641456     0.82000
N1396       N  0.61992364  0.48953326  0.13858706    -0.78700
C1397       C  0.61684493  0.02392019  0.13216284     0.82100
N1398       N  0.60442333  0.02431168  0.11352165    -0.80400
C1399       C  0.68113950  0.19992608  0.21499160     0.79600
N1400       N  0.67259809  0.16852372  0.20148029    -0.78700
C1401       C  0.65894415  0.17036576  0.18337668     0.82000
N1402       N  0.65384958  0.20433007  0.17895607    -0.78700
C1403       C  0.66269078  0.23624867  0.19227951     0.82100
N1404       N  0.67568070  0.23374450  0.21052082    -0.80400
C1405       C  0.00916708  0.18738545  0.10974890     0.79600
N1406       N  0.53512464  0.22374114  0.11884049    -0.78700
C1407       C  0.52449884  0.22936507  0.13836802     0.82000
N1408       N  0.98866250  0.19894882  0.14848898    -0.78700
C1409       C  0.96236142  0.16316552  0.13930259     0.82100
N1410       N  0.97315723  0.15714174  0.11994284    -0.80400
C1411       C  0.77275661  0.99872553  0.21467643     0.79600
N1412       N  0.74409158  0.46526109  0.20453645    -0.78700
C1413       C  0.75154243  0.46382832  0.18406519     0.82000
N1414       N  0.78686318  0.99548942  0.17415958    -0.78700
C1415       C  0.81565760  0.02785795  0.18420232     0.82100
N1416       N  0.80826956  0.02971816  0.20447297    -0.80400
C1417       C  0.93568120  0.29393249  0.21761142     0.79600
N1418       N  0.91457118  0.30344899  0.20463231    -0.78700
C1419       C  0.93305364  0.32393330  0.18629598     0.82000
N1420       N  0.47304881  0.33377593  0.18048837    -0.78700
C1421       C  0.49453613  0.32462907  0.19332050     0.82100
N1422       N  0.47577746  0.30503809  0.21158856    -0.80400
C1423       C  0.83495612  0.38722201  0.10021717     0.79600
N1424       N  0.79833976  0.38478815  0.10692114    -0.78700
C1425       C  0.77995090  0.36780128  0.12578129     0.82000
N1426       N  0.79912282  0.35438179  0.13813932    -0.78700
C1427       C  0.83609545  0.35721100  0.13168420     0.82100
N1428       N  0.85375755  0.37369239  0.11268890    -0.80400
O1429       O  0.66070182  0.44045302  0.13552167    -0.81500
O1430       O  0.67768856  0.30792575  0.18536147    -0.66200
O1431       O  0.65628628  0.36244367  0.14264989    -1.12800
C1432       C  0.53459076  0.32774845  0.18655342     1.05400
O1433       O  0.61283969  0.25442474  0.18560506    -0.79400
O1434       O  0.55006296  0.25507667  0.16913484    -0.67000
Ni1435     Ni  0.69575295  0.41552021  0.13013175     1.34900
C1436       C  0.55247155  0.26458705  0.15046938     0.84100
O1437       O  0.72058065  0.34584495  0.14941875    -0.80000
O1438       O  0.73340325  0.39388641  0.12401973    -0.90200
C1439       C  0.65069878  0.26833249  0.18817936     0.83700
O1440       O  0.72324980  0.44227859  0.15338693    -0.68400
O1441       O  0.54637579  0.30759742  0.19769162    -0.87700
C1442       C  0.72278415  0.43024144  0.17142507     0.84500
C1443       C  0.74203565  0.36871026  0.13349326     1.06100
H1444       H  0.62854744  0.35555572  0.18778738     0.37900
O1445       O  0.62063414  0.33410036  0.17755377    -1.10400
O1446       O  0.57610723  0.30219414  0.14263147    -0.67000
Ni1447     Ni  0.60593353  0.35636392  0.15579204     1.26300
O1448       O  0.70170745  0.39129343  0.17797614    -0.67300
O1449       O  0.55418681  0.34740394  0.16971649    -0.79500
C1450       C  0.62323477  0.42496601  0.13164960     0.83900
O1451       O  0.59739692  0.38495650  0.13401322    -0.66700
Ni1452     Ni  0.58096047  0.28276372  0.19135656     1.27400
Ni1453     Ni  0.67004678  0.33846266  0.16406606     1.26100
H1454       H  0.64929721  0.34218111  0.13189358     0.38400
O1455       O  0.71434684  0.18336274  0.30907997    -0.81500
O1456       O  0.84695086  0.17754830  0.36231441    -0.66200
O1457       O  0.78749831  0.19370106  0.32298175    -1.12800
C1458       C  0.78120236  0.07396684  0.29180199     1.05400
O1459       O  0.88057761  0.15202753  0.34234768    -0.79400
O1460       O  0.87294957  0.17623169  0.30400817    -0.67000
Ni1461     Ni  0.74495993  0.20703185  0.33251093     1.34900
C1462       C  0.85532501  0.18514016  0.29067563     0.84100
O1463       O  0.83302944  0.24051680  0.35394386    -0.80000
O1464       O  0.77156508  0.23670266  0.35601294    -0.90200
C1465       C  0.87529103  0.16793114  0.35895438     0.83700
O1466       O  0.71464151  0.15477629  0.34884456    -0.68400
O1467       O  0.81804214  0.09071994  0.29721467    -0.87700
C1468       C  0.73012515  0.14495436  0.36302600     0.84500
C1469       C  0.80783075  0.25200581  0.36157635     1.06100
H1470       H  0.78317888  0.10775301  0.34041875     0.37900
O1471       O  0.80144178  0.13137920  0.33105684    -1.10400
O1472       O  0.81614004  0.16649608  0.29091478    -0.67000
Ni1473     Ni  0.77062732  0.13856522  0.31149140     1.26300
O1474       O  0.76893529  0.15792174  0.36274606    -0.67300
O1475       O  0.75519044  0.08386780  0.30012621    -0.79500
C1476       C  0.72136907  0.16772108  0.29285481     0.83900
O1477       O  0.74158826  0.14784527  0.29211710    -0.66700
Ni1478     Ni  0.84677796  0.12339741  0.32014795     1.27400
Ni1479     Ni  0.81697421  0.18579109  0.34288634     1.26100
H1480       H  0.80700109  0.21668940  0.31360047     0.38400
C1481       C  0.79205655  0.98377027  0.54036259     0.79600
N1482       N  0.76979818  0.99726589  0.53047039    -0.78700
C1483       C  0.78131570  0.01321815  0.51116271     0.82000
N1484       N  0.81593035  0.01507509  0.50148716    -0.78700
C1485       C  0.83891872  0.00153642  0.51113122     0.82100
N1486       N  0.82668923  0.98561969  0.53064784    -0.80400
C1487       C  0.65362667  0.07975685  0.44398146     0.79600
N1488       N  0.67835809  0.06997542  0.45411507    -0.78700
C1489       C  0.66922819  0.05725950  0.47394965     0.82000
N1490       N  0.63448404  0.05460169  0.48390589    -0.78700
C1491       C  0.60893957  0.06431712  0.47419893     0.82100
N1492       N  0.61867645  0.07693704  0.45409760    -0.80400
C1493       C  0.60467075  0.21766235  0.55347936     0.79600
N1494       N  0.63840526  0.24319877  0.54066167    -0.78700
C1495       C  0.64173144  0.23214946  0.52126824     0.82000
N1496       N  0.61094487  0.19477353  0.51482106    -0.78700
C1497       C  0.57728024  0.16861337  0.52758056     0.82100
N1498       N  0.57439203  0.17966204  0.54713602    -0.80400
C1499       C  0.82975271  0.33602505  0.43691873     0.79600
N1500       N  0.86079331  0.37438810  0.44229576    -0.78700
C1501       C  0.85962215  0.38747033  0.46153352     0.82000
N1502       N  0.82670116  0.36268235  0.47510291    -0.78700
C1503       C  0.79517635  0.32452518  0.46960570     0.82100
N1504       N  0.79702257  0.31161912  0.45044517    -0.80400
C1505       C  0.98163638  0.36697464  0.55574351     0.79600
N1506       N  0.97982013  0.33772573  0.54191021    -0.78700
C1507       C  0.96975012  0.33939634  0.52271773     0.82000
N1508       N  0.96257932  0.37178988  0.51731538    -0.78700
C1509       C  0.96391260  0.40106635  0.53102014     0.82100
N1510       N  0.97427153  0.39882658  0.54995051    -0.80400
C1511       C  0.96353797  0.19224595  0.43043617     0.79600
N1512       N  0.96707740  0.22199732  0.44430895    -0.78700
C1513       C  0.47946897  0.22138244  0.46328000     0.82000
N1514       N  0.48618028  0.18856198  0.46847937    -0.78700
C1515       C  0.48316411  0.15875046  0.45469824     0.82100
N1516       N  0.47183155  0.16100002  0.43605137    -0.80400
O1517       O  0.00430156  0.47420642  0.52191397    -0.81500
O1518       O  0.50843562  0.11398448  0.46696858    -0.66200
O1519       O  0.98191281  0.03403822  0.51068872    -1.12800
C1520       C  0.89045544  0.43063028  0.46697948     1.05400
O1521       O  0.94176259  0.08447003  0.46122041    -0.79400
O1522       O  0.88118413  0.01432630  0.48107388    -0.67000
Ni1523     Ni  0.52234611  0.03369443  0.52606198     1.34900
C1524       C  0.87519111  0.00211227  0.49958507     0.84100
O1525       O  0.53452250  0.12272088  0.50375806    -0.80000
O1526       O  0.54285547  0.09343951  0.53179067    -0.90200
C1527       C  0.97798430  0.11685509  0.46112130     0.83700
O1528       O  0.56559894  0.04873722  0.50457587    -0.68400
O1529       O  0.89643145  0.46234582  0.45573009    -0.87700
C1530       C  0.57109038  0.06054920  0.48596810     0.84500
C1531       C  0.54884854  0.12566406  0.52090442     1.06100
H1532       H  0.97909912  0.01727522  0.46514805     0.37900
O1533       O  0.96196044  0.02377366  0.47465955    -1.10400
O1534       O  0.89822180  0.99044203  0.50794939    -0.67000
Ni1535     Ni  0.94524848  0.48368439  0.49722394     1.26300
O1536       O  0.54589602  0.06888235  0.47758449    -0.67300
O1537       O  0.90782807  0.43442339  0.48320874    -0.79500
C1538       C  0.96775434  0.44201159  0.52399056     0.83900
O1539       O  0.93653800  0.44495007  0.51946647    -0.66700
Ni1540     Ni  0.92136171  0.02358114  0.45914980     1.27400
Ni1541     Ni  0.49823972  0.07427597  0.48880368     1.26100
H1542       H  0.96491384  0.04052715  0.52030126     0.38400
C1543       C  0.78283487  0.37713870  0.76675727     0.79600
N1544       N  0.78655761  0.34165504  0.77043518    -0.78700
C1545       C  0.79644668  0.33524796  0.78902898     0.82000
N1546       N  0.80394367  0.36500600  0.80346433    -0.78700
C1547       C  0.80055483  0.40034294  0.79975285     0.82100
N1548       N  0.79026184  0.40603136  0.78141850    -0.80400
C1549       C  0.86266597  0.07881693  0.88224468     0.79600
N1550       N  0.85232127  0.04455247  0.87026920    -0.78700
C1551       C  0.83680973  0.04287140  0.85229133     0.82000
N1552       N  0.83193497  0.07615710  0.84628675    -0.78700
C1553       C  0.84304175  0.11121595  0.85780990     0.82100
N1554       N  0.85840197  0.11257136  0.87591500    -0.80400
C1555       C  0.68369741  0.06815844  0.76834406     0.79600
N1556       N  0.71213565  0.10272406  0.77819266    -0.78700
C1557       C  0.70513976  0.10487990  0.79868614     0.82000
N1558       N  0.67062913  0.07295089  0.80883662    -0.78700
C1559       C  0.64219006  0.03944001  0.79919641     0.82100
N1560       N  0.64946308  0.53572610  0.77913886    -0.80400
C1561       C  0.94670916  0.38148778  0.87320465     0.79600
N1562       N  0.48330331  0.41150261  0.86295061    -0.78700
C1563       C  0.99461461  0.40458939  0.84416834     0.82000
N1564       N  0.96805506  0.36930833  0.83473765    -0.78700
C1565       C  0.93153812  0.33928423  0.84431375     0.82100
N1566       N  0.92049863  0.34512257  0.86376399    -0.80400
C1567       C  0.63043807  0.19363980  0.88482559     0.79600
N1568       N  0.66593117  0.19526210  0.87687249    -0.78700
C1569       C  0.68001980  0.20754081  0.85712710     0.82000
N1570       N  0.65733211  0.21666342  0.84504397    -0.78700
C1571       C  0.62096899  0.21417411  0.85268027     0.82100
N1572       N  0.60777302  0.20245807  0.87260019    -0.80400
C1573       C  0.01711327  0.26306439  0.76483322     0.79600
N1574       N  0.97876446  0.25635936  0.77091695    -0.78700
C1575       C  0.95986001  0.23793738  0.78939581     0.82000
N1576       N  0.98006930  0.22657650  0.80214095    -0.78700
C1577       C  0.01850043  0.23241694  0.79605486     0.82100
N1578       N  0.53767632  0.25267057  0.77734473    -0.80400
O1579       O  0.84550384  0.31516615  0.79489119    -0.81500
O1580       O  0.85771564  0.18262351  0.84886710    -0.66200
O1581       O  0.83639950  0.23487136  0.80459313    -1.12800
C1582       C  0.71629159  0.20450386  0.84860566     1.05400
O1583       O  0.79377555  0.12820251  0.84807220    -0.79400
O1584       O  0.73286736  0.12829809  0.82936126    -0.67000
Ni1585     Ni  0.87712543  0.28602188  0.79074911     1.34900
C1586       C  0.73359654  0.13954724  0.81112355     0.84100
O1587       O  0.90085428  0.21830214  0.81296218    -0.80000
O1588       O  0.91206434  0.26110965  0.78562672    -0.90200
C1589       C  0.83114126  0.14288266  0.85195506     0.83700
O1590       O  0.90589258  0.31407609  0.81348992    -0.68400
O1591       O  0.72431071  0.17896740  0.85815456    -0.87700
C1592       C  0.90382510  0.30410156  0.83206791     0.84500
C1593       C  0.92151891  0.23834743  0.79641384     1.06100
H1594       H  0.80797204  0.22837411  0.85014519     0.37900
O1595       O  0.80044856  0.20765058  0.83957988    -1.10400
O1596       O  0.75480852  0.17833849  0.80424247    -0.67000
Ni1597     Ni  0.78722791  0.23179384  0.81779903     1.26300
O1598       O  0.88120452  0.26606761  0.83967880    -0.67300
O1599       O  0.73717590  0.22605269  0.83231004    -0.79500
C1600       C  0.80759462  0.30192990  0.79269176     0.83900
O1601       O  0.78006885  0.26257088  0.79615503    -0.66700
Ni1602     Ni  0.76032890  0.15535773  0.85259095     1.27400
Ni1603     Ni  0.85006162  0.21177638  0.82670921     1.26100
H1604       H  0.82822732  0.21336287  0.79437992     0.38400
O1605       O  0.00983364  0.13842079  0.01557387    -0.81500
O1606       O  0.96020829  0.48926179  0.95112157    -0.66200
O1607       O  0.96741294  0.05910837  0.99611508    -1.12800
C1608       C  0.53694880  0.99807043  0.02414421     1.05400
O1609       O  0.95098810  0.43176104  0.96833303    -0.79400
O1610       O  0.93300267  0.44324280  0.00836614    -0.67000
Ni1611     Ni  0.98418843  0.11863618  0.99029433     1.34900
C1612       C  0.93323820  0.46405746  0.02408793     0.84100
O1613       O  0.92568826  0.03676565  0.96136740    -0.80000
O1614       O  0.95819286  0.10752805  0.96499098    -0.90200
C1615       C  0.95103671  0.45004213  0.95191268     0.83700
O1616       O  0.53461410  0.12972803  0.97554780    -0.68400
O1617       O  0.51176696  0.46468105  0.01570974    -0.87700
C1618       C  0.53680031  0.10970703  0.95986037     0.84500
C1619       C  0.93319195  0.07410556  0.95607185     1.06100
H1620       H  0.52663350  0.02430696  0.97722182     0.37900
O1621       O  0.00109470  0.01259008  0.98567940    -1.10400
O1622       O  0.96143150  0.50302390  0.02580883    -0.67000
Ni1623     Ni  0.00644119  0.04801466  0.00810283     1.26300
O1624       O  0.50913606  0.07102568  0.95697139    -0.67300
O1625       O  0.54449565  0.03556296  0.01898172    -0.79500
C1626       C  0.01511641  0.12080437  0.03088466     0.83900
O1627       O  0.01185839  0.08391636  0.03016500    -0.66700
Ni1628     Ni  0.98174121  0.45235002  0.99202697     1.27400
Ni1629     Ni  0.96365407  0.02477284  0.97327052     1.26100
H1630       H  0.94109564  0.04594184  0.00427221     0.38400
O1631       O  0.56613853  0.40975268  0.64275843    -0.81500
O1632       O  0.71341476  0.42453132  0.69087360    -0.66200
O1633       O  0.64475538  0.42934091  0.65312268    -1.12800
C1634       C  0.63510042  0.30301426  0.62835441     1.05400
O1635       O  0.74115384  0.38976982  0.67358426    -0.79400
O1636       O  0.72969109  0.40598715  0.63376017    -0.67000
Ni1637     Ni  0.60054221  0.43832899  0.66459731     1.34900
C1638       C  0.70965036  0.40963838  0.61990883     0.84100
O1639       O  0.69463495  0.48446910  0.68149895    -0.80000
O1640       O  0.63008473  0.47199054  0.68698241    -0.90200
C1641       C  0.73616167  0.40726313  0.68964995     0.83700
O1642       O  0.57730999  0.38588009  0.68088106    -0.68400
O1643       O  0.67301801  0.32103733  0.63191793    -0.87700
C1644       C  0.59694250  0.37991873  0.69423332     0.84500
C1645       C  0.66801037  0.49264135  0.69065391     1.06100
H1646       H  0.64612199  0.34973529  0.67394083     0.37900
O1647       O  0.66280103  0.37098443  0.66325895    -1.10400
O1648       O  0.67061082  0.39509098  0.62249830    -0.67000
Ni1649     Ni  0.62740929  0.37171110  0.64461583     1.26300
O1650       O  0.63625226  0.40196480  0.69386791    -0.67300
O1651       O  0.61051052  0.31440384  0.63692344    -0.79500
C1652       C  0.56758103  0.38796882  0.62765399     0.83900
O1653       O  0.59183604  0.37259577  0.62587902    -0.66700
Ni1654     Ni  0.70498310  0.35798328  0.65283477     1.27400
Ni1655     Ni  0.67970857  0.42805368  0.67215904     1.26100
H1656       H  0.66096315  0.45054312  0.64234309     0.38400
C1657       C  0.01756619  0.28247776  0.72877603    -0.20900
C1658       C  0.53968082  0.29099233  0.74597660    -0.07500
C1659       C  0.57938364  0.32763437  0.74618959     0.13400
C1660       C  0.59633811  0.35570994  0.72915340    -0.21000
C1661       C  0.57511023  0.34850094  0.71163690    -0.07500
C1662       C  0.53563923  0.31133977  0.71123708     0.13400
C1663       C  0.51185223  0.30058061  0.69273822    -0.24300
H1664       H  0.98662749  0.25497646  0.72884751     0.14600
H1665       H  0.62653943  0.38408418  0.72972025     0.14700
C1666       C  0.60348110  0.33875697  0.76462238    -0.24300
H1667       H  0.98092859  0.26959547  0.69545913     0.04900
H1668       H  0.53082720  0.29815877  0.67946111     0.08100
H1669       H  0.50374761  0.32584661  0.68957149     0.08100
H1670       H  0.61238252  0.31403079  0.76761300     0.08100
H1671       H  0.58448342  0.34060361  0.77799806     0.08100
H1672       H  0.63232978  0.37035079  0.76256576     0.04900
C1673       C  0.59608438  0.20779131  0.81838674    -0.20900
C1674       C  0.59375631  0.21892069  0.83870726    -0.07500
C1675       C  0.56517868  0.23317280  0.84496916     0.13400
C1676       C  0.54074839  0.23657729  0.83075916    -0.21000
C1677       C  0.54382651  0.22626382  0.81039870    -0.07500
C1678       C  0.57163194  0.21114474  0.80422633     0.13400
C1679       C  0.57494914  0.19712777  0.78290984    -0.24300
H1680       H  0.61701585  0.19588682  0.81350131     0.14600
H1681       H  0.01962147  0.24777262  0.83557314     0.14700
C1682       C  0.56087379  0.24626902  0.86633832    -0.24300
H1683       H  0.59541863  0.18263917  0.78131555     0.04900
H1684       H  0.58835365  0.22517877  0.77205109     0.08100
H1685       H  0.54381655  0.17255307  0.77880910     0.08100
H1686       H  0.59152590  0.27171172  0.87055257     0.08100
H1687       H  0.54811374  0.21786349  0.87695447     0.08100
H1688       H  0.03989260  0.25941049  0.86795643     0.04900
C1689       C  0.58063911  0.17688721  0.93892523    -0.20900
C1690       C  0.56930411  0.13363527  0.94298359    -0.07500
C1691       C  0.58414765  0.11291863  0.92900515     0.13400
C1692       C  0.60645546  0.13460544  0.91068042    -0.21000
C1693       C  0.61341639  0.17590294  0.90572329    -0.07500
C1694       C  0.60205063  0.19805668  0.92036541     0.13400
C1695       C  0.61233058  0.24390122  0.91645261    -0.24300
H1696       H  0.57001870  0.19325431  0.94965287     0.14600
H1697       H  0.61640928  0.11821208  0.89962114     0.14700
C1698       C  0.57642030  0.06792667  0.93309839    -0.24300
H1699       H  0.60264595  0.25692189  0.92982703     0.04900
H1700       H  0.59612052  0.24570115  0.90356577     0.08100
H1701       H  0.64629005  0.26458143  0.91288590     0.08100
H1702       H  0.54310759  0.04407131  0.93269663     0.08100
H1703       H  0.58666893  0.06592475  0.94812480     0.08100
H1704       H  0.59380212  0.05880393  0.92150072     0.04900
C1705       C  0.93312365  0.44418799  0.91620252    -0.20900
C1706       C  0.94070953  0.42553350  0.93281625    -0.07500
C1707       C  0.94184312  0.38650287  0.92998652     0.13400
C1708       C  0.93940470  0.37003143  0.91042437    -0.21000
C1709       C  0.93596870  0.39137787  0.89372553    -0.07500
C1710       C  0.93102492  0.42779398  0.89675184     0.13400
C1711       C  0.92447099  0.45002691  0.87932748    -0.24300
H1712       H  0.93065143  0.47303510  0.91817936     0.14600
H1713       H  0.94314146  0.34204357  0.90789503     0.14700
C1714       C  0.94771551  0.36291165  0.94703624    -0.24300
H1715       H  0.91992265  0.47725909  0.88443368     0.04900
H1716       H  0.89644083  0.42663909  0.87210292     0.08100
H1717       H  0.95170518  0.46309909  0.86788937     0.08100
H1718       H  0.42243443  0.85376303  0.95829802     0.08100
H1719       H  0.97786554  0.38386673  0.95323611     0.08100
H1720       H  0.94778598  0.33324299  0.94187388     0.04900
C1721       C  0.59092343  0.46179213  0.80644967    -0.20900
C1722       C  0.60556420  0.50492439  0.81128091    -0.07500
C1723       C  0.58448542  0.51497275  0.82739020     0.13400
C1724       C  0.54857215  0.48165014  0.83766877    -0.21000
C1725       C  0.53339915  0.43849279  0.83262100    -0.07500
C1726       C  0.55541843  0.42834565  0.81701315     0.13400
C1727       C  0.54282537  0.38254462  0.81170400    -0.24300
H1728       H  0.60771521  0.45417562  0.79444990     0.14600
H1729       H  0.53189285  0.48952912  0.84960875     0.14700
C1730       C  0.59602672  0.06147885  0.83228405    -0.24300
H1731       H  0.56618335  0.38108082  0.80068012     0.04900
H1732       H  0.01203831  0.36764484  0.80441456     0.08100
H1733       H  0.53984034  0.36352027  0.82554362     0.08100
H1734       H  0.59878773  0.08098353  0.81867482     0.08100
H1735       H  0.62610987  0.07587793  0.83903064     0.08100
H1736       H  0.57332021  0.06313517  0.84373734     0.04900
C1737       C  0.66301102  0.56270826  0.73355379    -0.20900
C1738       C  0.68956266  0.06192856  0.74640270    -0.07500
C1739       C  0.71567976  0.04568234  0.73903561     0.13400
C1740       C  0.70947124  0.52382407  0.72026008    -0.21000
C1741       C  0.67967840  0.52235250  0.70801105    -0.07500
C1742       C  0.65784060  0.54433649  0.71434997     0.13400
C1743       C  0.62877961  0.54842341  0.70113482    -0.24300
H1744       H  0.64411638  0.57670094  0.73901799     0.14600
H1745       H  0.72666839  0.50755836  0.71553682     0.15300
C1746       C  0.74736458  0.04602737  0.75186507    -0.24300
H1747       H  0.61763323  0.56999384  0.70773318     0.04900
H1748       H  0.60104038  0.51660845  0.69950225     0.08100
H1749       H  0.64511984  0.56230364  0.68597075     0.08100
H1750       H  0.73178954  0.02709585  0.76625223     0.08100
H1751       H  0.76963801  0.07972530  0.75539159     0.08100
H1752       H  0.76508586  0.03179709  0.74397514     0.04900
C1753       C  0.87551314  0.04352352  0.93386029    -0.20900
C1754       C  0.91370921  0.07848254  0.93818880    -0.07500
C1755       C  0.93402839  0.11444445  0.92426128     0.13400
C1756       C  0.91554559  0.11433408  0.90659887    -0.21000
C1757       C  0.87821755  0.07876414  0.90204813    -0.07500
C1758       C  0.85772265  0.04293781  0.91592806     0.13400
C1759       C  0.81689081  0.00410223  0.91210550    -0.24300
H1760       H  0.85986883  0.01590911  0.94438593     0.14600
H1761       H  0.93132512  0.14138624  0.89575912     0.14700
C1762       C  0.97635924  0.15185134  0.92705817    -0.24300
H1763       H  0.80410494  0.98058172  0.92520646     0.04900
H1764       H  0.82094430  0.98710649  0.89874998     0.08100
H1765       H  0.79388302  0.01431522  0.90945441     0.08100
H1766       H  0.99909213  0.64013830  0.92827102     0.08100
H1767       H  0.97512677  0.16894244  0.94095676     0.08100
H1768       H  0.98833178  0.17568429  0.91409893     0.04900
C1769       C  0.85098684  0.48514021  0.83899702    -0.20900
C1770       C  0.82531770  0.00481752  0.83956837    -0.07500
C1771       C  0.79075308  0.98795263  0.82792887     0.13400
C1772       C  0.78164055  0.95159988  0.81649608    -0.21000
C1773       C  0.80861618  0.43363231  0.81495719    -0.07500
C1774       C  0.84262271  0.44969960  0.82686652     0.13400
C1775       C  0.87138540  0.43121553  0.82613987    -0.24300
H1776       H  0.87724081  0.49765493  0.84802481     0.14600
H1777       H  0.75501062  0.93852452  0.80773557     0.14700
C1778       C  0.76297503  0.00752792  0.82743432    -0.24300
H1779       H  0.89768718  0.44943556  0.83550380     0.04900
H1780       H  0.88450601  0.43264431  0.81028458     0.08100
H1781       H  0.85432744  0.39729334  0.83204005     0.08100
H1782       H  0.78046848  0.04028421  0.82015003     0.08100
H1783       H  0.75063772  0.00914312  0.84308211     0.08100
H1784       H  0.73614217  0.98830595  0.81850115     0.04900
C1785       C  0.73754699  0.41304050  0.72679849    -0.20900
C1786       C  0.75407451  0.40449553  0.70858644    -0.07500
C1787       C  0.78215376  0.38859521  0.70967629     0.13400
C1788       C  0.79053291  0.37929932  0.72883389    -0.21000
C1789       C  0.77229049  0.38615538  0.74689757    -0.07500
C1790       C  0.74608960  0.40423525  0.74574538     0.13400
C1791       C  0.72567222  0.41346671  0.76431930    -0.24300
H1792       H  0.71634216  0.42553181  0.72639522     0.14600
H1793       H  0.81175773  0.36694862  0.72972696     0.14700
C1794       C  0.80390559  0.38179714  0.69095153    -0.24300
H1795       H  0.70338440  0.42377811  0.76037607     0.04900
H1796       H  0.74938768  0.44049427  0.77238861     0.08100
H1797       H  0.70852141  0.38419761  0.77445602     0.08100
H1798       H  0.82042004  0.41200997  0.68141822     0.08100
H1799       H  0.78125597  0.35527977  0.68217175     0.08100
H1800       H  0.82719115  0.37280584  0.69481352     0.04900
C1801       C  0.00044977  0.29480683  0.50864652    -0.20900
C1802       C  0.97146266  0.30903207  0.50728882    -0.07500
C1803       C  0.94508341  0.29383839  0.49134930     0.13400
C1804       C  0.94856561  0.26547341  0.47739721    -0.21000
C1805       C  0.97750214  0.25121669  0.47871307    -0.07500
C1806       C  0.00391083  0.26635701  0.49465975     0.13400
C1807       C  0.53696914  0.25424460  0.49711731    -0.24300
H1808       H  0.02102925  0.30645529  0.52066139     0.14600
H1809       H  0.92778488  0.25371263  0.46547730     0.14700
C1810       C  0.91200359  0.30590674  0.48924435    -0.24300
H1811       H  0.05627125  0.27096395  0.50923109     0.04900
H1812       H  0.55784583  0.26272504  0.48289256     0.08100
H1813       H  0.02199776  0.21883023  0.50040112     0.08100
H1814       H  0.92639619  0.34086034  0.48548739     0.08100
H1815       H  0.89153268  0.29765481  0.50359904     0.08100
H1816       H  0.89227011  0.28847952  0.47690774     0.04900
C1817       C  0.51677697  0.34015014  0.60377182    -0.20900
C1818       C  0.54116744  0.38167946  0.61091338    -0.07500
C1819       C  0.04384464  0.41709895  0.60073013     0.13400
C1820       C  0.02248445  0.41078237  0.58341476    -0.21000
C1821       C  0.99904054  0.36963213  0.57562963    -0.07500
C1822       C  0.49472307  0.33343417  0.58652179     0.13400
C1823       C  0.46718562  0.28792040  0.58035848    -0.24300
H1824       H  0.51526633  0.31286773  0.61165902     0.14600
H1825       H  0.02571066  0.43875565  0.57540779     0.14700
C1826       C  0.07067714  0.46243346  0.60733809    -0.24300
H1827       H  0.46581702  0.26394338  0.59141912     0.04900
H1828       H  0.47911331  0.28222627  0.56541337     0.08100
H1829       H  0.43515943  0.28208680  0.57960118     0.08100
H1830       H  0.60213940  0.47006838  0.60704564     0.08100
H1831       H  0.05945882  0.46620025  0.62287410     0.08100
H1832       H  0.07012006  0.48668059  0.59717239     0.04900
C1833       C  0.74335523  0.32303277  0.49621427    -0.20900
C1834       C  0.75686659  0.29989715  0.48342967    -0.07500
C1835       C  0.73225380  0.25438866  0.48330850     0.13400
C1836       C  0.69481848  0.23367995  0.49568741    -0.21000
C1837       C  0.68106369  0.25686406  0.50824996    -0.07500
C1838       C  0.70576295  0.30224989  0.50854713     0.13400
C1839       C  0.69216840  0.32929647  0.52113619    -0.24300
H1840       H  0.76182370  0.35785413  0.49616868     0.14600
H1841       H  0.67631669  0.19885030  0.49571812     0.14700
C1842       C  0.74540191  0.22699901  0.47069117    -0.24300
H1843       H  0.71372993  0.36431642  0.51817733     0.04900
H1844       H  0.69145362  0.32254981  0.53752829     0.08100
H1845       H  0.66094036  0.32229132  0.51747142     0.08100
H1846       H  0.77692884  0.23433719  0.47397268     0.08100
H1847       H  0.74506450  0.23292117  0.45431351     0.08100
H1848       H  0.72411308  0.19202864  0.47400150     0.04900
C1849       C  0.62911722  0.22518272  0.58738417    -0.20900
C1850       C  0.60372050  0.23036040  0.57455670    -0.07500
C1851       C  0.58453184  0.25458658  0.58074264     0.13400
C1852       C  0.59216931  0.27422905  0.59951895    -0.21000
C1853       C  0.62061714  0.27243127  0.61166646    -0.07500
C1854       C  0.63826725  0.24629347  0.60580511     0.13400
C1855       C  0.66717607  0.24088933  0.61858204    -0.24300
H1856       H  0.64394531  0.20670272  0.58232954     0.14600
H1857       H  0.57864180  0.29428291  0.60382169     0.14700
C1858       C  0.55837638  0.26219394  0.56695195    -0.24300
H1859       H  0.67504432  0.21651714  0.61240839     0.04900
H1860       H  0.65226327  0.23000664  0.63424377     0.08100
H1861       H  0.69670493  0.27166887  0.61892237     0.08100
H1862       H  0.53151348  0.23093297  0.56347797     0.08100
H1863       H  0.57716136  0.27871559  0.55258651     0.08100
H1864       H  0.54644649  0.28273847  0.57400501     0.04900
C1865       C  0.71060199  0.00029645  0.50589299    -0.20900
C1866       C  0.75373160  0.02500140  0.50084484    -0.07500
C1867       C  0.76877696  0.06093431  0.48720166     0.13400
C1868       C  0.74050097  0.07083592  0.47900351    -0.21000
C1869       C  0.69738205  0.04619689  0.48416256    -0.07500
C1870       C  0.68238234  0.01019082  0.49774988     0.13400
C1871       C  0.63661961  0.98090940  0.50317091    -0.24300
H1872       H  0.69870286  0.97255659  0.51623605     0.14600
H1873       H  0.75225273  0.09838994  0.46855779     0.14700
C1874       C  0.81454725  0.08989784  0.48175332    -0.24300
H1875       H  0.63039504  0.95290823  0.51298675     0.04900
H1876       H  0.62077808  0.96826277  0.48916085     0.08100
H1877       H  0.62315667  0.99876810  0.51160286     0.08100
H1878       H  0.82786000  0.07166792  0.47354132     0.08100
H1879       H  0.83038535  0.10280066  0.49574169     0.08100
H1880       H  0.82089308  0.11768949  0.47174942     0.04900
C1881       C  0.73060281  0.43527808  0.56294090    -0.20900
C1882       C  0.77443352  0.96269146  0.56063002    -0.07500
C1883       C  0.79697366  0.97327419  0.57787619     0.13400
C1884       C  0.77478254  0.45353374  0.59700599    -0.21000
C1885       C  0.73118380  0.42812443  0.59943352    -0.07500
C1886       C  0.70900761  0.41831532  0.58183784     0.13400
C1887       C  0.66261634  0.38943662  0.58227127    -0.24300
H1888       H  0.71343825  0.42803837  0.54964656     0.14600
H1889       H  0.79277202  0.96475562  0.61040501     0.14700
C1890       C  0.84305989  0.00341904  0.57612066    -0.24300
H1891       H  0.65166488  0.38382052  0.56684977     0.04900
H1892       H  0.64636106  0.40440405  0.59087204     0.08100
H1893       H  0.65367554  0.35751923  0.58913043     0.08100
H1894       H  0.85025149  0.03496082  0.56934664     0.08100
H1895       H  0.85884390  0.98940208  0.56637417     0.08100
H1896       H  0.85569101  0.00910303  0.59115335     0.04900
C1897       C  0.93261773  0.15158688  0.39976040    -0.20900
C1898       C  0.94580196  0.18981925  0.41060177    -0.07500
C1899       C  0.93983701  0.22290131  0.40254137     0.13400
C1900       C  0.91797877  0.21518559  0.38523029    -0.21000
C1901       C  0.90301955  0.17607669  0.37524640    -0.07500
C1902       C  0.91169315  0.14446804  0.38222214     0.13400
C1903       C  0.89726963  0.10228464  0.37183454    -0.24300
H1904       H  0.43829232  0.12681780  0.40546175     0.14600
H1905       H  0.91210449  0.23981950  0.37949995     0.14700
C1906       C  0.95667341  0.26664604  0.41164043    -0.24300
H1907       H  0.90537011  0.08055496  0.37976530     0.04900
H1908       H  0.91227006  0.10828177  0.35609650     0.08100
H1909       H  0.86307691  0.08542744  0.37150439     0.08100
H1910       H  0.99058075  0.28117346  0.41250910     0.08100
H1911       H  0.94097263  0.26397184  0.42696376     0.08100
H1912       H  0.95155432  0.28907919  0.40236747     0.04900
C1913       C  0.81200198  0.33054086  0.40163966    -0.20900
C1914       C  0.83073383  0.32043710  0.41652055    -0.07500
C1915       C  0.84518568  0.29113543  0.41259905     0.13400
C1916       C  0.83988839  0.27172781  0.39381701    -0.21000
C1917       C  0.81907057  0.27981539  0.37920137    -0.07500
C1918       C  0.80563299  0.31028889  0.38297803     0.13400
C1919       C  0.78458549  0.32156640  0.36754843    -0.24300
H1920       H  0.80069689  0.35289512  0.40500633     0.14600
H1921       H  0.84971724  0.24802297  0.39106157     0.14700
C1922       C  0.86452203  0.27896183  0.42856818    -0.24300
H1923       H  0.77897300  0.34816226  0.37258473     0.04900
H1924       H  0.75403799  0.29337857  0.36517477     0.08100
H1925       H  0.80441120  0.33211792  0.35295863     0.08100
H1926       H  0.84228339  0.26492667  0.44226847     0.08100
H1927       H  0.89294754  0.30797267  0.43275760     0.08100
H1928       H  0.87299370  0.25460058  0.42312465     0.04900
C1929       C  0.68528357  0.07241139  0.41071924    -0.20900
C1930       C  0.66574751  0.09222020  0.42192639    -0.07500
C1931       C  0.66374738  0.12650856  0.41251957     0.13400
C1932       C  0.68168392  0.14019549  0.39242536    -0.21000
C1933       C  0.70354533  0.12213101  0.38184586    -0.07500
C1934       C  0.70507755  0.08757135  0.39114825     0.13400
C1935       C  0.72833491  0.06710083  0.38072854    -0.24300
H1936       H  0.68694788  0.04608388  0.41776013     0.14600
H1937       H  0.68145435  0.16747409  0.38551154     0.14700
C1938       C  0.64596546  0.15112101  0.42404504    -0.24300
H1939       H  0.72451677  0.03908273  0.38974422     0.04900
H1940       H  0.76197373  0.09069470  0.37867522     0.08100
H1941       H  0.71664363  0.05564130  0.36572865     0.08100
H1942       H  0.66274772  0.16460625  0.43773949     0.08100
H1943       H  0.61255018  0.12949503  0.42863854     0.08100
H1944       H  0.64892762  0.17837248  0.41472191     0.04900
C1945       C  0.85952526  0.37997622  0.06511303    -0.20900
C1946       C  0.85557519  0.40640923  0.07987663    -0.07500
C1947       C  0.87384949  0.45100508  0.07549316     0.13400
C1948       C  0.89659872  0.46829694  0.05663784    -0.21000
C1949       C  0.90205652  0.44224820  0.04193267    -0.07500
C1950       C  0.88220653  0.39705516  0.04617384     0.13400
C1951       C  0.88578250  0.36646232  0.03133597    -0.24300
H1952       H  0.84540822  0.34574399  0.06863155     0.14600
H1953       H  0.91154875  0.50279853  0.05369832     0.14700
C1954       C  0.87139227  0.48075518  0.09114886    -0.24300
H1955       H  0.86879297  0.33265404  0.03744089     0.04900
H1956       H  0.91870728  0.37520216  0.02788348     0.08100
H1957       H  0.87234381  0.36745560  0.01714225     0.08100
H1958       H  0.88547165  0.47839275  0.10485995     0.08100
H1959       H  0.83853931  0.47165084  0.09532396     0.08100
H1960       H  0.88824649  0.51488979  0.08549306     0.04900
C1961       C  0.86559640  0.30519610  0.17281403    -0.20900
C1962       C  0.90880051  0.33292567  0.17207251    -0.07500
C1963       C  0.92743958  0.36857090  0.15798139     0.13400
C1964       C  0.90269698  0.37506071  0.14511447    -0.21000
C1965       C  0.85967469  0.34738290  0.14583722    -0.07500
C1966       C  0.84084724  0.31187480  0.15992778     0.13400
C1967       C  0.79503888  0.28005178  0.16104329    -0.24300
H1968       H  0.85103344  0.27768595  0.18340701     0.14600
H1969       H  0.91713242  0.40259289  0.13452421     0.14700
C1970       C  0.97311845  0.40100392  0.15670370    -0.24300
H1971       H  0.78615246  0.25276301  0.17193560     0.04900
H1972       H  0.78638709  0.26656772  0.14589515     0.08100
H1973       H  0.77698021  0.29603665  0.16619980     0.08100
H1974       H  0.49171518  0.38616196  0.15101351     0.08100
H1975       H  0.48171315  0.41456584  0.17173899     0.08100
H1976       H  0.98140191  0.42844043  0.14601192     0.04900
C1977       C  0.93592448  0.25053340  0.24696056    -0.20900
C1978       C  0.91560271  0.26900795  0.23728393    -0.07500
C1979       C  0.87734102  0.26284316  0.24668563     0.13400
C1980       C  0.85994320  0.23694724  0.26452794    -0.21000
C1981       C  0.87938712  0.21698091  0.27360927    -0.07500
C1982       C  0.91860828  0.22499946  0.26495318     0.13400
C1983       C  0.94198222  0.20588980  0.27410603    -0.24300
H1984       H  0.96544872  0.25524358  0.24022466     0.14600
H1985       H  0.83029466  0.23179260  0.27136520     0.14700
C1986       C  0.85448115  0.28355261  0.23845152    -0.24300
H1987       H  0.97181940  0.21497624  0.26507508     0.04900
H1988       H  0.92314675  0.17018850  0.27477538     0.08100
H1989       H  0.94922026  0.21785138  0.28960610     0.08100
H1990       H  0.84391788  0.27061481  0.22347570     0.08100
H1991       H  0.87498650  0.31903773  0.23707634     0.08100
H1992       H  0.82644334  0.27696678  0.24853001     0.04900
C1993       C  0.79363159  0.02424788  0.26920829    -0.20900
C1994       C  0.77022595  0.04481497  0.27414953    -0.07500
C1995       C  0.74102089  0.04135503  0.26060443     0.13400
C1996       C  0.73888013  0.02103065  0.24205247    -0.21000
C1997       C  0.76535730  0.00464076  0.23645652    -0.07500
C1998       C  0.79167821  0.00449977  0.25053163     0.13400
C1999       C  0.81942342  0.48491078  0.24556273    -0.24300
H2000       H  0.81524862  0.02554833  0.27955145     0.14600
H2001       H  0.71904240  0.02138543  0.23105292     0.14700
C2002       C  0.71454834  0.06216418  0.26443607    -0.24300
H2003       H  0.83770412  0.48682395  0.25833843     0.04900
H2004       H  0.84148386  0.50194173  0.23212257     0.08100
H2005       H  0.79981344  0.45041758  0.24223118     0.08100
H2006       H  0.73488242  0.09743722  0.26486197     0.08100
H2007       H  0.69460805  0.04924292  0.27889369     0.08100
H2008       H  0.69381399  0.05610003  0.25222053     0.04900
C2009       C  0.90899536  0.08643023  0.14550673    -0.20900
C2010       C  0.92429129  0.12939177  0.15097081    -0.07500
C2011       C  0.90375842  0.13858259  0.16777234     0.13400
C2012       C  0.86876746  0.10460247  0.17839319    -0.21000
C2013       C  0.85358111  0.06182553  0.17281775    -0.07500
C2014       C  0.87418603  0.05254302  0.15622226     0.13400
C2015       C  0.86091496  0.00699914  0.15010775    -0.24300
H2016       H  0.92485003  0.07909189  0.13294130     0.14600
H2017       H  0.85273386  0.11156101  0.19102563     0.14700
C2018       C  0.91742739  0.18384427  0.17452665    -0.24300
H2019       H  0.88335566  0.00587034  0.13832798     0.04900
H2020       H  0.83049443  0.99254710  0.14369170     0.08100
H2021       H  0.85893823  0.98723732  0.16344933     0.08100
H2022       H  0.91912693  0.20436837  0.16157995     0.08100
H2023       H  0.44793513  0.19746984  0.18042429     0.08100
H2024       H  0.39534374  0.18420269  0.18644113     0.04900
C2025       C  0.01971970  0.18076235  0.05262029    -0.20900
C2026       C  0.02295327  0.14308528  0.05072139    -0.07500
C2027       C  0.02982918  0.12571686  0.06838171     0.13400
C2028       C  0.02771707  0.14288459  0.08733713    -0.21000
C2029       C  0.02060995  0.17779022  0.08923598    -0.07500
C2030       C  0.01871968  0.19837718  0.07165260     0.13400
C2031       C  0.01366607  0.23766117  0.07310735    -0.24300
H2032       H  0.01594025  0.19546939  0.03932105     0.14600
H2033       H  0.03011447  0.12792379  0.10096430     0.14700
C2034       C  0.03911524  0.08901939  0.06780697    -0.24300
H2035       H  0.01250050  0.24982141  0.05793561     0.04900
H2036       H  0.53985062  0.26336072  0.07997458     0.08100
H2037       H  0.98449892  0.22980118  0.08247377     0.08100
H2038       H  0.56609429  0.09697442  0.05623711     0.08100
H2039       H  0.01165272  0.05867697  0.06394187     0.08100
H2040       H  0.04733096  0.08292904  0.08271053     0.04900
C2041       C  0.66739080  0.19188807  0.25236949    -0.20900
C2042       C  0.69297101  0.19480321  0.23494738    -0.07500
C2043       C  0.72737343  0.18902555  0.23663988     0.13400
C2044       C  0.73496402  0.17965894  0.25572926    -0.21000
C2045       C  0.70899507  0.17565147  0.27331109    -0.07500
C2046       C  0.67494220  0.18237440  0.27160551     0.13400
C2047       C  0.64583515  0.17842967  0.28972700    -0.24300
H2048       H  0.64078265  0.19600729  0.25081868     0.14600
H2049       H  0.76200865  0.17613764  0.25690604     0.14700
C2050       C  0.75682020  0.19384585  0.21843772    -0.24300
H2051       H  0.61946405  0.18186692  0.28529803     0.04900
H2052       H  0.66244722  0.20413777  0.30045338     0.08100
H2053       H  0.63297163  0.14631924  0.29744255     0.08100
H2054       H  0.76939758  0.22615134  0.21097124     0.08100
H2055       H  0.74059284  0.16864959  0.20744772     0.08100
H2056       H  0.78336066  0.19056729  0.22274363     0.04900
C2057       C  0.66769500  0.10932665  0.17129191    -0.20900
C2058       C  0.64871908  0.13453577  0.16921841    -0.07500
C2059       C  0.61943494  0.12323326  0.15467207     0.13400
C2060       C  0.61012357  0.08719335  0.14286261    -0.21000
C2061       C  0.62845763  0.06146983  0.14531007    -0.07500
C2062       C  0.65785890  0.07291895  0.15980140     0.13400
C2063       C  0.67981857  0.04782802  0.16327673    -0.24300
H2064       H  0.69040401  0.11794947  0.18220658     0.14600
H2065       H  0.58759032  0.07854581  0.13184152     0.14700
C2066       C  0.59660612  0.14761792  0.15179004    -0.24300
H2067       H  0.70348422  0.06334301  0.17429303     0.04900
H2068       H  0.69596899  0.04566395  0.14880802     0.08100
H2069       H  0.65725501  0.01509571  0.16965527     0.08100
H2070       H  0.61875603  0.18107524  0.14616302     0.08100
H2071       H  0.57966177  0.14793837  0.16635865     0.08100
H2072       H  0.57348464  0.13264276  0.14047964     0.04900
C2073       C  0.55193285  0.45489155  0.07366473    -0.20900
C2074       C  0.58367637  0.49264430  0.08091506    -0.07500
C2075       C  0.60380611  0.03060200  0.06789098     0.13400
C2076       C  0.58982787  0.03008435  0.04884498    -0.21000
C2077       C  0.55564147  0.99322193  0.04221430    -0.07500
C2078       C  0.53712232  0.45464240  0.05488225     0.13400
C2079       C  0.00001918  0.41391231  0.04956442    -0.24300
H2080       H  0.53725496  0.42575445  0.08323639     0.14600
H2081       H  0.60472002  0.05940363  0.03941504     0.14700
C2082       C  0.63989532  0.07169215  0.07428100    -0.24300
H2083       H  0.98964522  0.38765331  0.06125952     0.04900
H2084       H  0.00769831  0.40232448  0.03510652     0.08100
H2085       H  0.97399061  0.92007287  0.04793656     0.08100
H2086       H  0.66426347  0.56552991  0.07915187     0.08100
H2087       H  0.62960069  0.08496611  0.08730513     0.08100
H2088       H  0.65343288  0.09689304  0.06188995     0.04900
C2089       C  0.59562206  0.99107758  0.10100609     0.79600
N2090       N  0.59857867  0.95665399  0.10733760    -0.78700
C2091       C  0.61053519  0.95586762  0.12601961     0.82000
N2092       N  0.62002177  0.98963900  0.13816487    -0.78700
C2093       C  0.61660433  0.52376246  0.13262741     0.82100
N2094       N  0.60408904  0.52413481  0.11401250    -0.80400
C2095       C  0.68113481  0.70027567  0.21514518     0.79600
N2096       N  0.67265652  0.66887842  0.20164515    -0.78700
C2097       C  0.65906737  0.67068842  0.18352505     0.82000
N2098       N  0.65397427  0.70463526  0.17906439    -0.78700
C2099       C  0.66274091  0.73656472  0.19237496     0.82100
N2100       N  0.67566336  0.73408345  0.21064687    -0.80400
C2101       C  0.00879613  0.68723169  0.10963713     0.79600
N2102       N  0.53506164  0.72407324  0.11880139    -0.78700
C2103       C  0.52451736  0.72968331  0.13834529     0.82000
N2104       N  0.98835261  0.69904384  0.14834109    -0.78700
C2105       C  0.96204588  0.66316487  0.13920993     0.82100
N2106       N  0.97281693  0.65702910  0.11986639    -0.80400
C2107       C  0.77298056  0.49845782  0.21479846     0.79600
N2108       N  0.74391913  0.96554118  0.20439183    -0.78700
C2109       C  0.75147053  0.96410637  0.18393004     0.82000
N2110       N  0.78688150  0.49524588  0.17426535    -0.78700
C2111       C  0.81571600  0.52763992  0.18428285     0.82100
N2112       N  0.80842759  0.52948097  0.20456179    -0.80400
C2113       C  0.93578186  0.79390804  0.21750518     0.79600
N2114       N  0.91467591  0.80354861  0.20457300    -0.78700
C2115       C  0.93315873  0.82412980  0.18625235     0.82000
N2116       N  0.47313542  0.83403031  0.18037357    -0.78700
C2117       C  0.49461234  0.82488488  0.19321067     0.82100
N2118       N  0.47580759  0.80521554  0.21146599    -0.80400
C2119       C  0.83530624  0.88776311  0.10017617     0.79600
N2120       N  0.79862884  0.88522009  0.10686006    -0.78700
C2121       C  0.78019089  0.86815484  0.12570777     0.82000
N2122       N  0.79937028  0.85476209  0.13807210    -0.78700
C2123       C  0.83639920  0.85770018  0.13164195     0.82100
N2124       N  0.85411602  0.87426235  0.11266068    -0.80400
O2125       O  0.66076767  0.94060247  0.13523557    -0.81500
O2126       O  0.67781601  0.80822427  0.18528305    -0.66200
O2127       O  0.65639540  0.86265990  0.14251365    -1.12800
C2128       C  0.53472886  0.82811260  0.18645423     1.05400
O2129       O  0.61293348  0.75476496  0.18560612    -0.79400
O2130       O  0.55014749  0.75543109  0.16910591    -0.67000
Ni2131     Ni  0.69587083  0.91571365  0.12996483     1.34900
C2132       C  0.55255265  0.76487816  0.15042954     0.84100
O2133       O  0.72069101  0.84602802  0.14930307    -0.80000
O2134       O  0.73360702  0.89417021  0.12394010    -0.90200
C2135       C  0.65078692  0.76866122  0.18819433     0.83700
O2136       O  0.72321141  0.94255300  0.15324606    -0.68400
O2137       O  0.54659393  0.80809657  0.19762669    -0.87700
C2138       C  0.72279065  0.93051513  0.17127862     0.84500
C2139       C  0.74221286  0.86896926  0.13340420     1.06100
H2140       H  0.62873689  0.85595471  0.18765081     0.37900
O2141       O  0.62078734  0.83444674  0.17744167    -1.10400
O2142       O  0.57623259  0.80243244  0.14255600    -0.67000
Ni2143     Ni  0.60605057  0.85663605  0.15565888     1.26300
O2144       O  0.70184702  0.89155743  0.17781999    -0.67300
O2145       O  0.55428771  0.84768862  0.16959212    -0.79500
C2146       C  0.62330948  0.92506503  0.13134190     0.83900
O2147       O  0.59744129  0.88508564  0.13382968    -0.66700
Ni2148     Ni  0.58111342  0.78318688  0.19130806     1.27400
Ni2149     Ni  0.67016206  0.83870555  0.16395053     1.26100
H2150       H  0.64939204  0.84237233  0.13176781     0.38400
O2151       O  0.71419219  0.68289833  0.30915429    -0.81500
O2152       O  0.84717010  0.67777027  0.36233400    -0.66200
O2153       O  0.78759183  0.69369519  0.32299232    -1.12800
C2154       C  0.78158821  0.57402675  0.29184487     1.05400
O2155       O  0.88096180  0.65245152  0.34235382    -0.79400
O2156       O  0.87327910  0.67635850  0.30396126    -0.67000
Ni2157     Ni  0.74491078  0.70681589  0.33252292     1.34900
C2158       C  0.85562199  0.68524504  0.29063798     0.84100
O2159       O  0.83307451  0.74059490  0.35393633    -0.80000
O2160       O  0.77155189  0.73664032  0.35597729    -0.90200
C2161       C  0.87559280  0.66828023  0.35896888     0.83700
O2162       O  0.71473601  0.65462936  0.34890330    -0.68400
O2163       O  0.81840672  0.59078831  0.29728748    -0.87700
C2164       C  0.73028467  0.64495188  0.36309973     0.84500
C2165       C  0.80782811  0.75204731  0.36153585     1.06100
H2166       H  0.78346494  0.60786979  0.34042724     0.37900
O2167       O  0.80171797  0.63150846  0.33106725    -1.10400
O2168       O  0.81643222  0.66666607  0.29091994    -0.67000
Ni2169     Ni  0.77089080  0.63863205  0.31148002     1.26300
O2170       O  0.76910952  0.65795872  0.36278992    -0.67300
O2171       O  0.75556952  0.58397633  0.30010892    -0.79500
C2172       C  0.72141817  0.66754202  0.29288220     0.83900
O2173       O  0.74186084  0.64789736  0.29208539    -0.66700
Ni2174     Ni  0.84714229  0.62362888  0.32018374     1.27400
Ni2175     Ni  0.81712414  0.68588704  0.34290138     1.26100
H2176       H  0.80705919  0.71672362  0.31361934     0.38400
C2177       C  0.79160809  0.48349912  0.54045256     0.79600
N2178       N  0.76972141  0.49755059  0.53061104    -0.78700
C2179       C  0.78141337  0.51377307  0.51135570     0.82000
N2180       N  0.81596754  0.51548833  0.50168007    -0.78700
C2181       C  0.83869298  0.50152597  0.51127983     0.82100
N2182       N  0.82619565  0.48523217  0.53073652    -0.80400
C2183       C  0.65384840  0.58049824  0.44415159     0.79600
N2184       N  0.67863724  0.57088457  0.45433395    -0.78700
C2185       C  0.66952614  0.55828327  0.47418196     0.82000
N2186       N  0.63472471  0.55556702  0.48409894    -0.78700
C2187       C  0.60911066  0.56510529  0.47434676     0.82100
N2188       N  0.61883531  0.57761253  0.45423082    -0.80400
C2189       C  0.60521695  0.71763638  0.55354611     0.79600
N2190       N  0.63878942  0.74312441  0.54063966    -0.78700
C2191       C  0.64163758  0.73236866  0.52115930     0.82000
N2192       N  0.61054337  0.69519640  0.51470975    -0.78700
C2193       C  0.57700195  0.66903091  0.52755452     0.82100
N2194       N  0.57458663  0.67988042  0.54718973    -0.80400
C2195       C  0.82971434  0.83632918  0.43676425     0.79600
N2196       N  0.86083790  0.87458880  0.44217210    -0.78700
C2197       C  0.85968273  0.88763021  0.46141533     0.82000
N2198       N  0.82669901  0.86287435  0.47497051    -0.78700
C2199       C  0.79509341  0.82478828  0.46944041     0.82100
N2200       N  0.79693402  0.81196185  0.45026601    -0.80400
C2201       C  0.98110291  0.86674340  0.55589538     0.79600
N2202       N  0.97905862  0.83729611  0.54212687    -0.78700
C2203       C  0.96908341  0.83894420  0.52291096     0.82000
N2204       N  0.96222937  0.87150244  0.51741065    -0.78700
C2205       C  0.96382378  0.90100672  0.53104134     0.82100
N2206       N  0.97409436  0.89879300  0.55000059    -0.80400
C2207       C  0.96344011  0.69224148  0.43055444     0.79600
N2208       N  0.96679708  0.72186134  0.44446920    -0.78700
C2209       C  0.47809446  0.72060807  0.46347463     0.82000
N2210       N  0.48488891  0.68781755  0.46862318    -0.78700
C2211       C  0.48206539  0.65817734  0.45478123     0.82100
N2212       N  0.47086982  0.66057221  0.43611898    -0.80400
O2213       O  0.00440542  0.97411583  0.52181142    -0.81500
O2214       O  0.50785027  0.61386233  0.46700884    -0.66200
O2215       O  0.98169712  0.53401084  0.51079538    -1.12800
C2216       C  0.89061131  0.93075636  0.46685685     1.05400
O2217       O  0.94153646  0.58435505  0.46131984    -0.79400
O2218       O  0.88096066  0.51428286  0.48121988    -0.67000
Ni2219     Ni  0.52235603  0.53411523  0.52615899     1.34900
C2220       C  0.87494508  0.50203065  0.49972673     0.84100
O2221       O  0.53401217  0.62294548  0.50380579    -0.80000
O2222       O  0.54264919  0.59386871  0.53182326    -0.90200
C2223       C  0.97777468  0.61672272  0.46120278     0.83700
O2224       O  0.56562889  0.54927682  0.50468070    -0.68400
O2225       O  0.89672923  0.96248962  0.45557746    -0.87700
C2226       C  0.57114392  0.56114199  0.48608016     0.84500
C2227       C  0.54848808  0.62602385  0.52092574     1.06100
H2228       H  0.97883004  0.51714184  0.46525600     0.37900
O2229       O  0.96171487  0.52366309  0.47477206    -1.10400
O2230       O  0.89795077  0.49029796  0.50807701    -0.67000
Ni2231     Ni  0.94545125  0.98375076  0.49710269     1.26300
O2232       O  0.54587417  0.56933937  0.47768025    -0.67300
O2233       O  0.90795506  0.93451806  0.48309219    -0.79500
C2234       C  0.96782027  0.94198052  0.52391837     0.83900
O2235       O  0.93666248  0.94498080  0.51934803    -0.66700
Ni2236     Ni  0.92108745  0.52345231  0.45927848     1.27400
Ni2237     Ni  0.49794583  0.57431091  0.48885789     1.26100
H2238       H  0.96468824  0.54051707  0.52039287     0.38400
C2239       C  0.78248639  0.87733310  0.76706531     0.79600
N2240       N  0.78630736  0.84185718  0.77058177    -0.78700
C2241       C  0.79569179  0.83487629  0.78919599     0.82000
N2242       N  0.80260165  0.86411652  0.80385181    -0.78700
C2243       C  0.79907007  0.89944787  0.80029494     0.82100
N2244       N  0.78933538  0.90567652  0.78192438    -0.80400
C2245       C  0.86391384  0.57943730  0.88190622     0.79600
N2246       N  0.85390601  0.54536824  0.86983109    -0.78700
C2247       C  0.83855929  0.54381696  0.85181808     0.82000
N2248       N  0.83350950  0.57703306  0.84588756    -0.78700
C2249       C  0.84423874  0.61188466  0.85751366     0.82100
N2250       N  0.85942791  0.61310639  0.87565619    -0.80400
C2251       C  0.68393747  0.56703202  0.76837882     0.79600
N2252       N  0.71236022  0.60191180  0.77806633    -0.78700
C2253       C  0.70561906  0.60434296  0.79854840     0.82000
N2254       N  0.67139112  0.57238964  0.80884395    -0.78700
C2255       C  0.64292012  0.53856372  0.79939919     0.82100
N2256       N  0.64898370  0.03692387  0.77894872    -0.80400
C2257       C  0.94700478  0.88207696  0.87286848     0.79600
N2258       N  0.48259208  0.91224317  0.86239147    -0.78700
C2259       C  0.99452306  0.90511563  0.84368681     0.82000
N2260       N  0.96790481  0.86974943  0.83433735    -0.78700
C2261       C  0.93151349  0.83972688  0.84402041     0.82100
N2262       N  0.92069378  0.84563295  0.86350301    -0.80400
C2263       C  0.63002988  0.69226122  0.88458323     0.79600
N2264       N  0.66559579  0.69410450  0.87659154    -0.78700
C2265       C  0.67942140  0.70608421  0.85679910     0.82000
N2266       N  0.65636491  0.71462115  0.84469133    -0.78700
C2267       C  0.61997652  0.71197947  0.85239788     0.82100
N2268       N  0.60704260  0.70060796  0.87236553    -0.80400
C2269       C  0.01725890  0.76217861  0.76490052     0.79600
N2270       N  0.97918574  0.75630761  0.77096821    -0.78700
C2271       C  0.96007904  0.73815785  0.78944374     0.82000
N2272       N  0.97980068  0.72626982  0.80224441    -0.78700
C2273       C  0.01791516  0.73126927  0.79619537     0.82100
N2274       N  0.53658865  0.74991469  0.77733621    -0.80400
O2275       O  0.84518679  0.81506820  0.79455672    -0.81500
O2276       O  0.85824051  0.68312419  0.84869751    -0.66200
O2277       O  0.83649878  0.73496456  0.80440131    -1.12800
C2278       C  0.71596921  0.70351684  0.84831794     1.05400
O2279       O  0.79453492  0.62835020  0.84788418    -0.79400
O2280       O  0.73356087  0.62802835  0.82910573    -0.67000
Ni2281     Ni  0.87710543  0.78617579  0.79052112     1.34900
C2282       C  0.73409301  0.63920456  0.81088382     0.84100
O2283       O  0.90107231  0.71871389  0.81283448    -0.80000
O2284       O  0.91244518  0.76161714  0.78551841    -0.90200
C2285       C  0.83194570  0.64330386  0.85174520     0.83700
O2286       O  0.90562433  0.81439942  0.81327641    -0.68400
O2287       O  0.72427758  0.67822789  0.85788458    -0.87700
C2288       C  0.90372069  0.80446221  0.83184280     0.84500
C2289       C  0.92183151  0.73882027  0.79633532     1.06100
H2290       H  0.80797095  0.72828010  0.84996079     0.37900
O2291       O  0.80056942  0.70757341  0.83939078    -1.10400
O2292       O  0.75500775  0.67801423  0.80399472    -0.67000
Ni2293     Ni  0.78713795  0.73150717  0.81760139     1.26300
O2294       O  0.88129328  0.76641086  0.83947107    -0.67300
O2295       O  0.73685575  0.72527026  0.83206812    -0.79500
C2296       C  0.80714590  0.80168331  0.79261596     0.83900
O2297       O  0.77979457  0.76223818  0.79601715    -0.66700
Ni2298     Ni  0.76072534  0.65512204  0.85237114     1.27400
Ni2299     Ni  0.85029841  0.71203342  0.82653712     1.26100
H2300       H  0.82844679  0.71344979  0.79419321     0.38400
O2301       O  0.00979393  0.63810463  0.01555740    -0.81500
O2302       O  0.96064554  0.98984341  0.95096776    -0.66200
O2303       O  0.96728681  0.55880857  0.99616083    -1.12800
C2304       C  0.53700216  0.49806970  0.02454256     1.05400
O2305       O  0.95148224  0.93230785  0.96812178    -0.79400
O2306       O  0.93332291  0.94358577  0.00823772    -0.67000
Ni2307     Ni  0.98429939  0.61836379  0.99025453     1.34900
C2308       C  0.93352304  0.96438408  0.02396992     0.84100
O2309       O  0.92558410  0.53654585  0.96139462    -0.80000
O2310       O  0.95850266  0.60732682  0.96490141    -0.90200
C2311       C  0.95163084  0.95066532  0.95170079     0.83700
O2312       O  0.53504224  0.62952249  0.97551835    -0.68400
O2313       O  0.51152573  0.96469791  0.01535912    -0.87700
C2314       C  0.53722637  0.60935394  0.95988838     0.84500
C2315       C  0.93340130  0.57394973  0.95599541     1.06100
H2316       H  0.52692526  0.52412660  0.97755993     0.37900
O2317       O  0.00076228  0.51206533  0.98579485    -1.10400
O2318       O  0.96170298  0.00334842  0.02570034    -0.67000
Ni2319     Ni  0.00622061  0.54759316  0.00818123     1.26300
O2320       O  0.50957669  0.57062966  0.95707301    -0.67300
O2321       O  0.54442310  0.53552330  0.01939540    -0.79500
C2322       C  0.01501807  0.62048616  0.03088285     0.83900
O2323       O  0.01173238  0.58359006  0.03019385    -0.66700
Ni2324     Ni  0.98213123  0.95286073  0.99186495     1.27400
Ni2325     Ni  0.96339858  0.52435619  0.97335933     1.26100
H2326       H  0.94097803  0.54576103  0.00432393     0.38400
O2327       O  0.56628291  0.90906082  0.64285728    -0.81500
O2328       O  0.71356313  0.92467220  0.69114252    -0.66200
O2329       O  0.64503934  0.92936878  0.65329499    -1.12800
C2330       C  0.63714406  0.80385760  0.62822503     1.05400
O2331       O  0.74265273  0.89160760  0.67354332    -0.79400
O2332       O  0.73091377  0.90751814  0.63379191    -0.67000
Ni2333     Ni  0.60026755  0.93732069  0.66487749     1.34900
C2334       C  0.71075521  0.91081826  0.61991376     0.84100
O2335       O  0.69422173  0.98430457  0.68195982    -0.80000
O2336       O  0.62933291  0.97067485  0.68744681    -0.90200
C2337       C  0.73691090  0.90812078  0.68979008     0.83700
O2338       O  0.57748936  0.88443821  0.68081552    -0.68400
O2339       O  0.67503625  0.82230794  0.63186412    -0.87700
C2340       C  0.59715152  0.87841012  0.69412869     0.84500
C2341       C  0.66724692  0.99198226  0.69109561     1.06100
H2342       H  0.64729177  0.84997404  0.67380481     0.37900
O2343       O  0.66387612  0.87150777  0.66321652    -1.10400
O2344       O  0.67167038  0.89602452  0.62247264    -0.67000
Ni2345     Ni  0.62839601  0.87201686  0.64455299     1.26300
O2346       O  0.63635872  0.90132586  0.69395073    -0.67300
O2347       O  0.61223183  0.81495385  0.63669057    -0.79500
C2348       C  0.56808241  0.88769430  0.62764446     0.83900
O2349       O  0.59264038  0.87267244  0.62580605    -0.66700
Ni2350     Ni  0.70667615  0.85944553  0.65279818     1.27400
Ni2351     Ni  0.67998801  0.92820463  0.67237667     1.26100
H2352       H  0.66115647  0.95084536  0.64260754     0.38400
C2353       C  0.01641308  0.78303103  0.72930155    -0.20900
C2354       C  0.53943675  0.78832355  0.74567433    -0.07500
C2355       C  0.58154518  0.82076278  0.74460056     0.13400
C2356       C  0.59880702  0.84866717  0.72749610    -0.21000
C2357       C  0.57552142  0.84584300  0.71123216    -0.07500
C2358       C  0.53372839  0.81237534  0.71197855     0.13400
C2359       C  0.50713594  0.80583297  0.69488716    -0.24300
H2360       H  0.98437363  0.75752353  0.72998904     0.14600
H2361       H  0.63091564  0.87381754  0.72720201     0.14700
C2362       C  0.60829520  0.82811176  0.76176565    -0.24300
H2363       H  0.97637860  0.77463837  0.69760942     0.04900
H2364       H  0.52190520  0.80096541  0.68057858     0.08100
H2365       H  0.50287313  0.83422314  0.69304273     0.08100
H2366       H  0.61218115  0.79963418  0.76413500     0.08100
H2367       H  0.59403118  0.83430568  0.77588627     0.08100
H2368       H  0.63975977  0.85631497  0.75854370     0.04900
C2369       C  0.59232034  0.70214680  0.81862038    -0.20900
C2370       C  0.59247880  0.71634574  0.83852230    -0.07500
C2371       C  0.56607580  0.73339567  0.84454347     0.13400
C2372       C  0.54139466  0.73668454  0.83045405    -0.21000
C2373       C  0.54207938  0.72340625  0.81046648    -0.07500
C2374       C  0.56748338  0.70524992  0.80459292     0.13400
C2375       C  0.56767079  0.68775338  0.78378487    -0.24300
H2376       H  0.61154204  0.68804211  0.81400919     0.14600
H2377       H  0.02124427  0.74959079  0.83536583     0.14700
C2378       C  0.56443560  0.74951292  0.86551535    -0.24300
H2379       H  0.58670001  0.67160218  0.78240235     0.04900
H2380       H  0.58095341  0.71422759  0.77206112     0.08100
H2381       H  0.53555640  0.66368081  0.78074573     0.08100
H2382       H  0.59608323  0.77399171  0.86901210     0.08100
H2383       H  0.55093354  0.72215071  0.87678120     0.08100
H2384       H  0.04324887  0.76303543  0.86746943     0.04900
C2385       C  0.58100758  0.67633909  0.93879661    -0.20900
C2386       C  0.56969246  0.63313000  0.94297209    -0.07500
C2387       C  0.58444943  0.61225305  0.92904605     0.13400
C2388       C  0.60649122  0.63365687  0.91062688    -0.21000
C2389       C  0.61335466  0.67486370  0.90555332    -0.07500
C2390       C  0.60224309  0.69726111  0.92016478     0.13400
C2391       C  0.61268492  0.74312974  0.91615376    -0.24300
H2392       H  0.57051240  0.69285877  0.94949441     0.14600
H2393       H  0.61632042  0.61711066  0.89959757     0.14700
C2394       C  0.57692694  0.56739363  0.93330397    -0.24300
H2395       H  0.60309679  0.75632356  0.92949094     0.04900
H2396       H  0.59654326  0.74494431  0.90324145     0.08100
H2397       H  0.64665692  0.76367224  0.91257088     0.08100
H2398       H  0.54362364  0.54340425  0.93301947     0.08100
H2399       H  0.58738285  0.56573318  0.94832155     0.08100
H2400       H  0.59426278  0.55816811  0.92172896     0.04900
C2401       C  0.93366192  0.94478174  0.91597545    -0.20900
C2402       C  0.94152986  0.92627485  0.93255073    -0.07500
C2403       C  0.94309066  0.88748568  0.92964774     0.13400
C2404       C  0.94049967  0.87096701  0.91008684    -0.21000
C2405       C  0.93656090  0.89205447  0.89343622    -0.07500
C2406       C  0.93145406  0.92836408  0.89651666     0.13400
C2407       C  0.92458649  0.95044892  0.87913873    -0.24300
H2408       H  0.93098502  0.97350253  0.91799421     0.14600
H2409       H  0.94447506  0.84313574  0.90751156     0.14700
C2410       C  0.94961156  0.86423318  0.94661463    -0.24300
H2411       H  0.91996156  0.97761505  0.88427783     0.04900
H2412       H  0.89650724  0.92695065  0.87198139     0.08100
H2413       H  0.95171288  0.96358469  0.86763486     0.08100
H2414       H  0.42265425  0.35324761  0.95879828     0.08100
H2415       H  0.97975128  0.88557658  0.95274146     0.08100
H2416       H  0.95013006  0.83482093  0.94139308     0.04900
C2417       C  0.59030474  0.96261694  0.80602831    -0.20900
C2418       C  0.60457757  0.00572053  0.81081979    -0.07500
C2419       C  0.58280030  0.01571026  0.82656561     0.13400
C2420       C  0.54701320  0.98226972  0.83683805    -0.21000
C2421       C  0.53238961  0.93909235  0.83197193    -0.07500
C2422       C  0.55463689  0.92905464  0.81641904     0.13400
C2423       C  0.54201571  0.88330947  0.81090839    -0.24300
H2424       H  0.60746900  0.95513572  0.79417165     0.14600
H2425       H  0.52994653  0.99007357  0.84860118     0.14700
C2426       C  0.59865607  0.56066091  0.83359161    -0.24300
H2427       H  0.56522066  0.88181375  0.79973165     0.04900
H2428       H  0.01207609  0.86827169  0.80393502     0.08100
H2429       H  0.53905668  0.86406891  0.82465975     0.08100
H2430       H  0.60147605  0.58089923  0.82026855     0.08100
H2431       H  0.62889079  0.57416661  0.84014325     0.08100
H2432       H  0.57650168  0.56240715  0.84536844     0.04900
C2433       C  0.66087258  0.06163832  0.73389880    -0.20900
C2434       C  0.68991302  0.56051287  0.74648263    -0.07500
C2435       C  0.71454055  0.54229059  0.73945314     0.13400
C2436       C  0.71019785  0.02636657  0.72002224    -0.21000
C2437       C  0.67862650  0.02220432  0.70828695    -0.07500
C2438       C  0.65528737  0.04247176  0.71489471     0.13400
C2439       C  0.62402956  0.04376483  0.70224686    -0.24300
H2440       H  0.64084832  0.07413869  0.73961944     0.14600
H2441       H  0.72865746  0.01159488  0.71506843     0.15300
C2442       C  0.74414550  0.53972434  0.75279076    -0.24300
H2443       H  0.61202687  0.06459075  0.70889065     0.04900
H2444       H  0.59697763  0.01110377  0.70133814     0.08100
H2445       H  0.63877037  0.05705772  0.68677890     0.08100
H2446       H  0.72693751  0.52054212  0.76691966     0.08100
H2447       H  0.76744511  0.57269223  0.75676746     0.08100
H2448       H  0.76086362  0.52421376  0.74510869     0.04900
C2449       C  0.87612052  0.54356100  0.93352921    -0.20900
C2450       C  0.91420611  0.57847909  0.93801756    -0.07500
C2451       C  0.93465500  0.61462021  0.92418499     0.13400
C2452       C  0.91641232  0.61470391  0.90646422    -0.21000
C2453       C  0.87919790  0.57918162  0.90176329    -0.07500
C2454       C  0.85856622  0.54319432  0.91554536     0.13400
C2455       C  0.81781430  0.50442021  0.91156628    -0.24300
H2456       H  0.86035822  0.51581955  0.94397609     0.14600
H2457       H  0.93229226  0.64188661  0.89569987     0.14700
C2458       C  0.97687482  0.65205274  0.92714341    -0.24300
H2459       H  0.80488123  0.48073882  0.92460396     0.04900
H2460       H  0.82203655  0.48760020  0.89817893     0.08100
H2461       H  0.79484450  0.51467035  0.90888821     0.08100
H2462       H  0.99854490  0.13988017  0.92815375     0.08100
H2463       H  0.97540781  0.66895961  0.94107058     0.08100
H2464       H  0.98896789  0.67603591  0.91424300     0.04900
C2465       C  0.84950811  0.98448263  0.83937650    -0.20900
C2466       C  0.82713593  0.50584573  0.83903554    -0.07500
C2467       C  0.79284001  0.48933869  0.82722245     0.13400
C2468       C  0.78372277  0.45307074  0.81574280    -0.21000
C2469       C  0.80682437  0.93246714  0.81560243    -0.07500
C2470       C  0.84118477  0.94902380  0.82727673     0.13400
C2471       C  0.87043608  0.93112992  0.82625344    -0.24300
H2472       H  0.87604103  0.99736399  0.84822588     0.14600
H2473       H  0.75718950  0.44018596  0.80693725     0.14700
C2474       C  0.76525558  0.50912457  0.82661517    -0.24300
H2475       H  0.89696072  0.94968191  0.83544513     0.04900
H2476       H  0.88320564  0.93267436  0.81031498     0.08100
H2477       H  0.85387719  0.89721848  0.83216398     0.08100
H2478       H  0.78296666  0.54192560  0.81938987     0.08100
H2479       H  0.75268603  0.51064829  0.84222340     0.08100
H2480       H  0.73856617  0.49010136  0.81756680     0.04900
C2481       C  0.73978510  0.91579078  0.72682926    -0.20900
C2482       C  0.75487410  0.90531224  0.70871065    -0.07500
C2483       C  0.78132993  0.88741486  0.70994990     0.13400
C2484       C  0.78956941  0.87829769  0.72916747    -0.21000
C2485       C  0.77259481  0.88696946  0.74715431    -0.07500
C2486       C  0.74794481  0.90685685  0.74584402     0.13400
C2487       C  0.72858167  0.91775509  0.76430428    -0.24300
H2488       H  0.71993878  0.92992078  0.72631749     0.14600
H2489       H  0.80952367  0.86440673  0.73016202     0.14700
C2490       C  0.80122496  0.87787069  0.69133248    -0.24300
H2491       H  0.70661819  0.92848423  0.76027957     0.04900
H2492       H  0.75298649  0.94480778  0.77208897     0.08100
H2493       H  0.71106629  0.88905329  0.77476057     0.08100
H2494       H  0.81887087  0.90738068  0.68138303     0.08100
H2495       H  0.77725612  0.85160946  0.68296632     0.08100
H2496       H  0.82323067  0.86714783  0.69528117     0.04900
C2497       C  0.99987917  0.79446291  0.50883909    -0.20900
C2498       C  0.97070501  0.80844953  0.50754087    -0.07500
C2499       C  0.94412996  0.79298836  0.49168878     0.13400
C2500       C  0.94772959  0.76474108  0.47769983    -0.21000
C2501       C  0.97691650  0.75079533  0.47893229    -0.07500
C2502       C  0.00341230  0.76607461  0.49484004     0.13400
C2503       C  0.53615822  0.75394342  0.49702266    -0.24300
H2504       H  0.02056739  0.80628231  0.52080559     0.14600
H2505       H  0.92686263  0.75283117  0.46581702     0.14700
C2506       C  0.91071361  0.80462554  0.48973814    -0.24300
H2507       H  0.05596614  0.77097071  0.50933322     0.04900
H2508       H  0.55676501  0.76238846  0.48270567     0.08100
H2509       H  0.02183822  0.71878640  0.50050247     0.08100
H2510       H  0.92477253  0.83954290  0.48598963     0.08100
H2511       H  0.89040936  0.79623174  0.50415506     0.08100
H2512       H  0.89087852  0.78702941  0.47746020     0.04900
C2513       C  0.51705171  0.84003172  0.60376359    -0.20900
C2514       C  0.54169640  0.88152639  0.61087728    -0.07500
C2515       C  0.04310757  0.91659631  0.60099419     0.13400
C2516       C  0.02180749  0.91039831  0.58366172    -0.21000
C2517       C  0.99835089  0.86929907  0.57582973    -0.07500
C2518       C  0.49474175  0.83341976  0.58660784     0.13400
C2519       C  0.46662223  0.78792485  0.58060930    -0.24300
H2520       H  0.51542400  0.81267617  0.61163737     0.14600
H2521       H  0.02505975  0.93842222  0.57569285     0.14700
C2522       C  0.06972414  0.96186459  0.60773518    -0.24300
H2523       H  0.46506499  0.76391674  0.59171259     0.04900
H2524       H  0.47813314  0.78182221  0.56564816     0.08100
H2525       H  0.43472156  0.78254415  0.57996675     0.08100
H2526       H  0.60263474  0.96994446  0.60712772     0.08100
H2527       H  0.05834646  0.96536094  0.62328421     0.08100
H2528       H  0.06909504  0.98616856  0.59763974     0.04900
C2529       C  0.74354924  0.82317413  0.49627317    -0.20900
C2530       C  0.75673288  0.80011094  0.48324905    -0.07500
C2531       C  0.73174382  0.75465390  0.48288551     0.13400
C2532       C  0.69428458  0.73396307  0.49525432    -0.21000
C2533       C  0.68087769  0.75708815  0.50806180    -0.07500
C2534       C  0.70595963  0.80240733  0.50861123     0.13400
C2535       C  0.69281102  0.82944632  0.52149623    -0.24300
H2536       H  0.76229226  0.85794853  0.49642943     0.14600
H2537       H  0.67551191  0.69917822  0.49510080     0.14700
C2538       C  0.74449528  0.72725466  0.47002269    -0.24300
H2539       H  0.71461350  0.86446166  0.51869701     0.04900
H2540       H  0.69214938  0.82225960  0.53782908     0.08100
H2541       H  0.66165092  0.82290373  0.51796112     0.08100
H2542       H  0.77595023  0.73417188  0.47320532     0.08100
H2543       H  0.74413225  0.73357670  0.45369450     0.08100
H2544       H  0.72297847  0.69227980  0.47319017     0.04900
C2545       C  0.63337124  0.72795715  0.58662194    -0.20900
C2546       C  0.60500685  0.73002055  0.57472315    -0.07500
C2547       C  0.58332551  0.75123668  0.58181652     0.13400
C2548       C  0.59173007  0.77145175  0.60044620    -0.21000
C2549       C  0.62290279  0.77284091  0.61165010    -0.07500
C2550       C  0.64294902  0.74935207  0.60494647     0.13400
C2551       C  0.67495904  0.74715149  0.61663013    -0.24300
H2552       H  0.65001648  0.71170211  0.58088168     0.14600
H2553       H  0.57627165  0.78938190  0.60535746     0.14700
C2554       C  0.55357486  0.75519360  0.56909715    -0.24300
H2555       H  0.68430802  0.72420417  0.60998437     0.04900
H2556       H  0.66212257  0.73610138  0.63255244     0.08100
H2557       H  0.70338941  0.77913436  0.61629945     0.08100
H2558       H  0.52794359  0.72264620  0.56616745     0.08100
H2559       H  0.57000894  0.77220174  0.55440865     0.08100
H2560       H  0.53995105  0.77369970  0.57676983     0.04900
C2561       C  0.71081460  0.50150301  0.50631771    -0.20900
C2562       C  0.75392086  0.52579188  0.50107885    -0.07500
C2563       C  0.76899025  0.56145386  0.48726242     0.13400
C2564       C  0.74076483  0.57147899  0.47908785    -0.21000
C2565       C  0.69766945  0.54722279  0.48442438    -0.07500
C2566       C  0.68265105  0.51150968  0.49819877     0.13400
C2567       C  0.63690333  0.48260945  0.50385152    -0.24300
H2568       H  0.69886077  0.47395764  0.51678718     0.14600
H2569       H  0.75254445  0.59881056  0.46850197     0.14700
C2570       C  0.81474069  0.58998437  0.48157690    -0.24300
H2571       H  0.63064219  0.45476996  0.51379768     0.04900
H2572       H  0.62073952  0.46970215  0.48994764     0.08100
H2573       H  0.62380581  0.50085262  0.51223347     0.08100
H2574       H  0.82764922  0.57134185  0.47341412     0.08100
H2575       H  0.83091840  0.60312292  0.49545606     0.08100
H2576       H  0.82113497  0.61761796  0.47144594     0.04900
C2577       C  0.73174617  0.93414621  0.56281344    -0.20900
C2578       C  0.77361318  0.46209460  0.56066387    -0.07500
C2579       C  0.79626616  0.47073046  0.57780194     0.13400
C2580       C  0.77558971  0.95625293  0.59711118    -0.21000
C2581       C  0.73221481  0.92903484  0.59942374    -0.07500
C2582       C  0.71027558  0.91712882  0.58173076     0.13400
C2583       C  0.66435520  0.88576028  0.58211113    -0.24300
H2584       H  0.71475378  0.92552402  0.54942729     0.14600
H2585       H  0.79212243  0.46050698  0.61019963     0.14700
C2586       C  0.84264072  0.49903449  0.57600534    -0.24300
H2587       H  0.65373829  0.87851920  0.56664056     0.04900
H2588       H  0.64635684  0.89939526  0.59022535     0.08100
H2589       H  0.65720172  0.85481635  0.58945483     0.08100
H2590       H  0.85122555  0.53129196  0.56957752     0.08100
H2591       H  0.85719242  0.48420355  0.56595517     0.08100
H2592       H  0.85533948  0.50341028  0.59097798     0.04900
C2593       C  0.93237524  0.65157271  0.39991585    -0.20900
C2594       C  0.94581440  0.68990091  0.41069821    -0.07500
C2595       C  0.94019116  0.72315518  0.40256372     0.13400
C2596       C  0.91844762  0.71555366  0.38521309    -0.21000
C2597       C  0.90325658  0.67636469  0.37528131    -0.07500
C2598       C  0.91153082  0.64454046  0.38235921     0.13400
C2599       C  0.89670166  0.60220031  0.37207158    -0.24300
H2600       H  0.43872080  0.62719469  0.40511882     0.14600
H2601       H  0.91282505  0.74032029  0.37942005     0.14700
C2602       C  0.95728270  0.76695068  0.41163085    -0.24300
H2603       H  0.90449360  0.58030474  0.38007784     0.04900
H2604       H  0.91167501  0.60791833  0.35633667     0.08100
H2605       H  0.86251809  0.58566323  0.37174142     0.08100
H2606       H  0.99115340  0.78123113  0.41253982     0.08100
H2607       H  0.94157562  0.76443626  0.42693791     0.08100
H2608       H  0.95241426  0.78950774  0.40231230     0.04900
C2609       C  0.81150887  0.83040413  0.40157093    -0.20900
C2610       C  0.83070940  0.82076352  0.41637427    -0.07500
C2611       C  0.84561690  0.79185817  0.41240732     0.13400
C2612       C  0.84032034  0.77237784  0.39364695    -0.21000
C2613       C  0.81904077  0.77998141  0.37911125    -0.07500
C2614       C  0.80513408  0.81006852  0.38293669     0.13400
C2615       C  0.78354885  0.82082972  0.36759992    -0.24300
H2616       H  0.79984524  0.85244446  0.40498417     0.14600
H2617       H  0.85050901  0.74896450  0.39085907     0.14700
C2618       C  0.86537717  0.78011409  0.42832241    -0.24300
H2619       H  0.77769202  0.84726162  0.37264539     0.04900
H2620       H  0.75306860  0.79240077  0.36536688     0.08100
H2621       H  0.80312204  0.83139363  0.35293747     0.08100
H2622       H  0.84329380  0.76597104  0.44206830     0.08100
H2623       H  0.89368887  0.80933879  0.43244558     0.08100
H2624       H  0.87412093  0.75596738  0.42285816     0.04900
C2625       C  0.68554308  0.57288951  0.41095796    -0.20900
C2626       C  0.66593566  0.59273745  0.42207366    -0.07500
C2627       C  0.66383507  0.62685488  0.41255180     0.13400
C2628       C  0.68179991  0.64037996  0.39244833    -0.21000
C2629       C  0.70375173  0.62230155  0.38196297    -0.07500
C2630       C  0.70533262  0.58787210  0.39137108     0.13400
C2631       C  0.72860740  0.56733434  0.38104009    -0.24300
H2632       H  0.68725508  0.54666625  0.41808066     0.14600
H2633       H  0.68149745  0.66753967  0.38544702     0.14700
C2634       C  0.64588462  0.65144412  0.42395765    -0.24300
H2635       H  0.72484068  0.53943740  0.39013884     0.04900
H2636       H  0.76223685  0.59095006  0.37894293     0.08100
H2637       H  0.71688330  0.55567870  0.36606525     0.08100
H2638       H  0.66261262  0.66513652  0.43764686     0.08100
H2639       H  0.61248278  0.62973999  0.42855007     0.08100
H2640       H  0.64875155  0.67854264  0.41454810     0.04900
C2641       C  0.85974234  0.88041437  0.06504696    -0.20900
C2642       C  0.85591195  0.90690851  0.07981755    -0.07500
C2643       C  0.87424499  0.95150248  0.07540905     0.13400
C2644       C  0.89696346  0.96872619  0.05653698    -0.21000
C2645       C  0.90232631  0.94261671  0.04182802    -0.07500
C2646       C  0.88237813  0.89742778  0.04608641     0.13400
C2647       C  0.88578576  0.86676996  0.03123670    -0.24300
H2648       H  0.84555940  0.84617930  0.06857433     0.14600
H2649       H  0.91196115  0.00322752  0.05358589     0.14700
C2650       C  0.87185452  0.98131823  0.09104709    -0.24300
H2651       H  0.86869764  0.83296148  0.03734071     0.04900
H2652       H  0.91867217  0.87538290  0.02776448     0.08100
H2653       H  0.87235325  0.86784905  0.01705458     0.08100
H2654       H  0.88595434  0.97898852  0.10475719     0.08100
H2655       H  0.83901392  0.97225018  0.09523383     0.08100
H2656       H  0.88872095  0.01543656  0.08536634     0.04900
C2657       C  0.86577022  0.80545027  0.17272055    -0.20900
C2658       C  0.90894367  0.83325511  0.17206474    -0.07500
C2659       C  0.92760543  0.86907630  0.15807420     0.13400
C2660       C  0.90292293  0.87561020  0.14518376    -0.21000
C2661       C  0.85993152  0.84783392  0.14580813    -0.07500
C2662       C  0.84107323  0.81219795  0.15982830     0.13400
C2663       C  0.79528660  0.78032206  0.16086724    -0.24300
H2664       H  0.85119591  0.77783087  0.18325026     0.14600
H2665       H  0.91737217  0.90325354  0.13465885     0.14700
C2666       C  0.97323222  0.90165710  0.15694512    -0.24300
H2667       H  0.78638118  0.75295274  0.17171280     0.04900
H2668       H  0.78673686  0.76696601  0.14568889     0.08100
H2669       H  0.77716138  0.79622346  0.16604466     0.08100
H2670       H  0.49179146  0.88601949  0.15073881     0.08100
H2671       H  0.48215653  0.91467254  0.17146475     0.08100
H2672       H  0.98151276  0.92922794  0.14634174     0.04900
C2673       C  0.93597214  0.75024671  0.24675991    -0.20900
C2674       C  0.91574725  0.76894739  0.23717391    -0.07500
C2675       C  0.87766509  0.76305403  0.24668272     0.13400
C2676       C  0.86029688  0.73715873  0.26452852    -0.21000
C2677       C  0.87965342  0.71701445  0.27353752    -0.07500
C2678       C  0.91873946  0.72479998  0.26478390     0.13400
C2679       C  0.94206688  0.70557243  0.27388055    -0.24300
H2680       H  0.96536932  0.75475443  0.23994099     0.14600
H2681       H  0.83075948  0.73218249  0.27143902     0.14700
C2682       C  0.85500968  0.78411378  0.23857288    -0.24300
H2683       H  0.97179877  0.71449305  0.26478291     0.04900
H2684       H  0.92310796  0.66988169  0.27460304     0.08100
H2685       H  0.94950063  0.71760738  0.28935443     0.08100
H2686       H  0.84423269  0.77128271  0.22361215     0.08100
H2687       H  0.87573893  0.81956444  0.23720232     0.08100
H2688       H  0.82713276  0.77774232  0.24873126     0.04900
C2689       C  0.79423538  0.52443823  0.26925711    -0.20900
C2690       C  0.77062513  0.54477133  0.27423036    -0.07500
C2691       C  0.74117498  0.54094989  0.26075476     0.13400
C2692       C  0.73899813  0.52052737  0.24222802    -0.21000
C2693       C  0.76567753  0.50440538  0.23658551    -0.07500
C2694       C  0.79225433  0.50461133  0.25060213     0.13400
C2695       C  0.81860599  0.98450843  0.24553191    -0.24300
H2696       H  0.81603240  0.52599340  0.27955158     0.14600
H2697       H  0.71895427  0.52060612  0.23127550     0.14700
C2698       C  0.71440945  0.56142289  0.26463628    -0.24300
H2699       H  0.83671399  0.98618231  0.25834484     0.04900
H2700       H  0.84080879  0.00149990  0.23212956     0.08100
H2701       H  0.79883315  0.95007093  0.24215303     0.08100
H2702       H  0.73449781  0.59675418  0.26500108     0.08100
H2703       H  0.69463738  0.54846921  0.27913758     0.08100
H2704       H  0.69348573  0.55505104  0.25247870     0.04900
C2705       C  0.90879550  0.58639033  0.14545931    -0.20900
C2706       C  0.92406606  0.62934795  0.15093196    -0.07500
C2707       C  0.90360666  0.63847477  0.16778904     0.13400
C2708       C  0.86872547  0.60444147  0.17845592    -0.21000
C2709       C  0.85355740  0.56167211  0.17286363    -0.07500
C2710       C  0.87409089  0.55245686  0.15621313     0.13400
C2711       C  0.86085764  0.50693484  0.15007574    -0.24300
H2712       H  0.92458687  0.57908653  0.13285178     0.14600
H2713       H  0.85275303  0.61135342  0.19113362     0.14700
C2714       C  0.91723035  0.68372057  0.17455217    -0.24300
H2715       H  0.88325544  0.50586572  0.13825021     0.04900
H2716       H  0.83038326  0.49243122  0.14371113     0.08100
H2717       H  0.85901148  0.48718528  0.16339321     0.08100
H2718       H  0.91874500  0.70419630  0.16162896     0.08100
H2719       H  0.44804691  0.69784404  0.18046592     0.08100
H2720       H  0.39549463  0.68465519  0.18655125     0.04900
C2721       C  0.01970148  0.68053333  0.05253923    -0.20900
C2722       C  0.02279502  0.64277079  0.05070315    -0.07500
C2723       C  0.02942798  0.62531017  0.06840518     0.13400
C2724       C  0.02720739  0.64249827  0.08733663    -0.21000
C2725       C  0.02024469  0.67750743  0.08916484    -0.07500
C2726       C  0.01860363  0.69816913  0.07154815     0.13400
C2727       C  0.01369902  0.73754953  0.07293803    -0.24300
H2728       H  0.01610643  0.69529623  0.03920559     0.14600
H2729       H  0.02941939  0.62748995  0.10099588     0.14700
C2730       C  0.03853545  0.58848121  0.06790330    -0.24300
H2731       H  0.01270601  0.74974178  0.05774167     0.04900
H2732       H  0.53951384  0.76358826  0.07983455     0.08100
H2733       H  0.98449255  0.72979001  0.08224132     0.08100
H2734       H  0.56676555  0.59796831  0.05627229     0.08100
H2735       H  0.01103934  0.55820117  0.06400791     0.08100
H2736       H  0.04657773  0.58233575  0.08284300     0.04900
C2737       C  0.66727969  0.69181913  0.25251853    -0.20900
C2738       C  0.69301308  0.69514981  0.23508907    -0.07500
C2739       C  0.72750292  0.68949075  0.23673403     0.13400
C2740       C  0.73508627  0.67992709  0.25578432    -0.21000
C2741       C  0.70900708  0.67556905  0.27337185    -0.07500
C2742       C  0.67480629  0.68207151  0.27171460     0.13400
C2743       C  0.64549327  0.67759380  0.28983884    -0.24300
H2744       H  0.64055794  0.69575458  0.25099855     0.14600
H2745       H  0.76218720  0.67648673  0.25692545     0.14700
C2746       C  0.75700909  0.69456059  0.21851544    -0.24300
H2747       H  0.61901070  0.68085698  0.28543639     0.04900
H2748       H  0.66187491  0.70315058  0.30066839     0.08100
H2749       H  0.63280437  0.64538593  0.29742685     0.08100
H2750       H  0.76948325  0.72690101  0.21110445     0.08100
H2751       H  0.74086441  0.66942434  0.20748708     0.08100
H2752       H  0.78361572  0.69136889  0.22279015     0.04900
C2753       C  0.66773761  0.60953040  0.17156765    -0.20900
C2754       C  0.64881582  0.63477562  0.16942373    -0.07500
C2755       C  0.61945475  0.62334827  0.15491455     0.13400
C2756       C  0.60998297  0.58712908  0.14322235    -0.21000
C2757       C  0.62825679  0.56136626  0.14573932    -0.07500
C2758       C  0.65773642  0.57293869  0.16019424     0.13400
C2759       C  0.67958226  0.54777337  0.16375780    -0.24300
H2760       H  0.69051062  0.61825500  0.18245603     0.14600
H2761       H  0.58738920  0.57839488  0.13222701     0.14700
C2762       C  0.59672326  0.64780201  0.15194778    -0.24300
H2763       H  0.70326434  0.56333401  0.17476289     0.04900
H2764       H  0.69569199  0.54543367  0.14931354     0.08100
H2765       H  0.65694475  0.51511000  0.17018853     0.08100
H2766       H  0.61892993  0.68118645  0.14624227     0.08100
H2767       H  0.57984983  0.64833086  0.16650160     0.08100
H2768       H  0.57355294  0.63274698  0.14066538     0.04900
C2769       C  0.55198650  0.95496520  0.07327061    -0.20900
C2770       C  0.58392688  0.99268329  0.08044029    -0.07500
C2771       C  0.60349471  0.53065401  0.06842786     0.13400
C2772       C  0.58961833  0.53018072  0.04936190    -0.21000
C2773       C  0.55562539  0.49325459  0.04264314    -0.07500
C2774       C  0.53703408  0.95469976  0.05452316     0.13400
C2775       C  0.00031896  0.91425643  0.04933122    -0.24300
H2776       H  0.53723826  0.92589798  0.08289194     0.14600
H2777       H  0.60445559  0.55955878  0.03997554     0.14700
C2778       C  0.63943516  0.57178391  0.07489491    -0.24300
H2779       H  0.98993165  0.88793943  0.06099615     0.04900
H2780       H  0.00815313  0.90280016  0.03487068     0.08100
H2781       H  0.97374286  0.41982752  0.04819991     0.08100
H2782       H  0.66466724  0.06533069  0.07852032     0.08100
H2783       H  0.62898461  0.58491039  0.08792413     0.08100
H2784       H  0.65296160  0.59706054  0.06253853     0.04900
loop_ 
_geom_bond_atom_site_label_1 
_geom_bond_atom_site_label_2 
_geom_bond_distance 
_geom_bond_site_symmetry_2 
_ccdc_geom_bond_type 
C1            N2   1.360       .  A
C1          N702   1.358       .  A
C1          C682   1.474       .  S
N2            C3   1.354       .  A
C3            N4   1.354       .  A
C3           C58   1.453       .  S
N4          C701   1.353       .  A
C5            N6   1.356       .  A
C5          N700   1.353   1_545  A
C5          C669   1.487       .  S
N6          C697   1.358   1_545  A
C7            N8   1.354       .  A
C7           N12   1.359       .  A
C7          C650   1.468       .  S
N8            C9   1.354       .  A
C9           N10   1.354       .  A
C9          C666   1.488       .  S
N10          C11   1.358       .  A
C11          N12   1.359       .  A
C11          C47   1.455       .  S
C13          N18   1.361       .  A
C13        N1406   1.365       .  A
C13         C637   1.476       .  S
N14          C15   1.362       .  A
N14        C1405   1.365       .  A
C15        N1408   1.352   1_455  A
C15          C44   1.462       .  S
N16          C17   1.346       .  A
N16        C1407   1.352       .  A
C17          N18   1.357       .  A
C17         C618   1.486       .  S
C19          N24   1.360   1_565  A
C19         N716   1.369       .  A
C19         C605   1.479   1_565  S
N20          C21   1.366       .  A
N20         C715   1.369       .  A
C21         N718   1.352       .  A
C21          C50   1.466       .  S
N22          C23   1.346   1_565  A
N22         C717   1.351       .  A
C23          N24   1.354       .  A
C23         C621   1.477       .  S
C25          N26   1.362       .  A
C25        N1422   1.354       .  A
C25         C586   1.500       .  S
N26          C27   1.365       .  A
C27        N1420   1.364       .  A
C27         C570   1.497       .  S
N28          C29   1.359       .  A
N28        C1419   1.364       .  A
C29          N30   1.354       .  A
C29          C40   1.472   1_655  S
N30        C1417   1.354       .  A
C31          N32   1.359       .  A
C31          N36   1.358       .  A
C31         C554   1.484       .  S
N32          C33   1.363       .  A
C33          N34   1.361       .  A
C33          C51   1.477       .  S
N34          C35   1.362       .  A
C35          N36   1.362       .  A
C35         C573   1.491       .  S
O37         Ni43   1.919       .  S
O37          C58   1.271       .  A
O38         Ni61   1.915       .  S
O38          C47   1.271       .  A
O39         Ni43   1.875       .  S
O39         Ni61   1.893       .  S
O39         Ni55   1.911       .  S
O39          H62   0.966       .  S
C40          O57   1.281       .  A
C40          O49   1.276       .  A
O41         Ni60   1.917       .  S
O41          C47   1.270       .  A
O42         Ni60   1.898       .  S
O42          C44   1.269       .  A
Ni43         O46   1.921       .  S
Ni43         O48   1.898       .  S
C44          O54   1.272       .  A
O45         Ni61   1.942       .  S
O45          C51   1.284       .  A
O46          C51   1.278       .  A
O48          C50   1.269       .  A
O49         Ni60   1.910       .  S
C50          O56   1.271       .  A
H52          O53   0.966       .  S
O53         Ni61   1.913       .  S
O53         Ni55   1.896       .  S
O53         Ni60   1.875       .  S
O54         Ni55   1.934       .  S
Ni55         O59   1.911       .  S
Ni55         O57   1.941       .  S
O56         Ni61   1.937       .  S
C58          O59   1.271       .  A
O63         Ni69   1.934       .  S
O63          C84   1.272       .  A
O64         Ni87   1.887       .  S
O64          C73   1.264       .  A
O65         Ni69   1.925       .  S
O65         Ni87   1.892       .  S
O65         Ni81   1.918       .  S
O65          H88   0.966       .  S
C66         C602   1.502       .  S
C66          O83   1.269       .  A
C66          O75   1.280       .  A
O67         Ni86   1.950       .  S
O67          C73   1.277       .  A
O68         Ni86   1.923       .  S
O68          C70   1.273       .  A
Ni69         O72   1.928       .  S
Ni69         O74   1.917       .  S
C70         C589   1.491       .  S
C70          O80   1.270       .  A
O71         Ni87   1.899       .  S
O71          C77   1.265       .  A
O72          C77   1.269       .  A
C73         C509   1.482       .  S
O74          C76   1.277       .  A
O75         Ni86   1.955       .  S
C76         C541   1.487       .  S
C76          O82   1.281       .  A
C77         C525   1.475       .  S
H78          O79   0.965       .  S
O79         Ni87   1.914       .  S
O79         Ni81   1.899       .  S
O79         Ni86   1.929       .  S
O80         Ni81   1.923       .  S
Ni81         O85   1.876       .  S
Ni81         O83   1.910       .  S
O82         Ni87   1.949       .  S
C84         C653   1.484       .  S
C84          O85   1.262       .  A
C89          N90   1.356       .  A
C89          N94   1.364       .  A
C89         C490   1.477       .  S
N90          C91   1.350   1_565  A
C91          N92   1.361       .  A
C91         C474   1.499       .  S
N92          C93   1.371       .  A
C93          N94   1.364   1_545  A
C93         C132   1.486       .  S
C95          N96   1.358       .  A
C95         N100   1.371       .  A
C95         C538   1.495       .  S
N96          C97   1.352       .  A
C97          N98   1.361       .  A
C97         C477   1.498       .  S
N98          C99   1.368       .  A
C99         N100   1.369       .  A
C99         C138   1.497       .  S
C101        N102   1.355       .  A
C101        N106   1.359       .  A
C101        C458   1.466       .  S
N102        C103   1.353       .  A
C103        N104   1.357       .  A
C103        C445   1.481       .  S
N104        C105   1.357       .  A
C105        N106   1.361       .  A
C105        C139   1.461       .  S
C107        N108   1.355       .  A
C107        N112   1.353       .  A
C107        C522   1.460       .  S
N108        C109   1.357       .  A
C109        N110   1.361       .  A
C109        C128   1.462       .  S
N110        C111   1.361       .  A
C111        N112   1.353       .  A
C111        C442   1.485       .  S
C113        N114   1.362       .  A
C113        N118   1.359       .  A
C113        C429   1.497       .  S
N114        C115   1.364       .  A
C115        N116   1.365       .  A
C115        C410   1.501       .  S
N116        C117   1.362       .  A
C117        N118   1.355       .  A
C117        C146   1.472       .  S
C119        N120   1.361       .  A
C119       N1516   1.356       .  A
C119        C506   1.501       .  S
N120       C1513   1.364       .  A
C121        N122   1.366       .  A
C121       N1512   1.364       .  A
C121       C1805   1.503       .  S
N122        C123   1.364       .  A
C123        N124   1.353       .  A
C123       C1527   1.467       .  S
N124       C1511   1.356       .  A
O125      Ni2219   1.927       .  S
O125        C146   1.274       .  A
O126       Ni149   1.913   1_455  S
O126       C1527   1.272   1_455  A
O127      Ni1523   1.886       .  S
O127      Ni1541   1.894       .  S
O127       Ni839   1.910   1_545  S
O127        H150   0.966       .  S
C128        O145   1.272       .  A
C128        O137   1.275       .  A
O129       Ni148   1.924       .  S
O129        C135   1.271       .  A
O130       Ni148   1.901       .  S
O130        C132   1.269       .  A
Ni131       O134   1.925       .  S
Ni131       O136   1.918       .  S
Ni131      O2213   1.927   1_545  S
Ni131      O1519   1.885   1_455  S
C132        O142   1.285   1_545  A
O133       Ni149   1.920   1_455  S
O133        C139   1.276       .  A
O134        C139   1.276       .  A
C135       C1515   1.466       .  S
C135       O1518   1.271       .  A
O136        C138   1.273       .  A
O137       Ni844   1.925       .  S
C138        O144   1.282       .  A
H140        O141   0.966       .  S
O141       Ni148   1.895       .  S
O141      Ni1541   1.923       .  S
O141       Ni839   1.910   1_545  S
O142       Ni839   1.965       .  S
Ni143       O147   1.922       .  S
Ni143       O145   1.915       .  S
Ni143       O838   1.965       .  S
Ni143       O823   1.909       .  S
Ni143       O837   1.909       .  S
O144       Ni149   1.963   1_455  S
C146        O147   1.277       .  A
Ni148       O833   1.925   1_545  S
Ni149      O1519   1.894       .  S
Ni149      O1533   1.924       .  S
C151        N152   1.366       .  A
C151        N156   1.351       .  A
C151        C397   1.484       .  S
N152        C153   1.366       .  A
C153        N154   1.361       .  A
C153        C208   1.467       .  S
N154        C155   1.355       .  A
C155        N156   1.349       .  A
C155        C381   1.479       .  S
C157        N158   1.357       .  A
C157        N162   1.364       .  A
C157        C365   1.475       .  S
N158        C159   1.354       .  A
C159        N160   1.356       .  A
C159        C378   1.484       .  S
N160        C161   1.358       .  A
C161        N162   1.360       .  A
C161        C197   1.468       .  S
C163        N164   1.372       .  A
C163        N864   1.360       .  A
C163        C346   1.481       .  S
N164        C165   1.368       .  A
C165        N166   1.351       .  A
C165        C194   1.471       .  S
N166        C167   1.345       .  A
C167        N864   1.354       .  A
C167       C1026   1.477       .  S
N168        C859   1.361       .  A
N168        C863   1.355       .  A
C169        N174   1.366       .  A
C169       N1562   1.358       .  A
C169        C317   1.473       .  S
N170       C1561   1.358       .  A
N170       C1563   1.354       .  A
C171        N172   1.347       .  A
C171       N1562   1.353       .  A
C171       C1725   1.481       .  S
N172        C173   1.353       .  A
C173        N174   1.364       .  A
C173        C200   1.464       .  S
C175        N176   1.355       .  A
C175        N180   1.360       .  A
C175        C301   1.481       .  S
N176        C177   1.358       .  A
C177        N178   1.361       .  A
C177        C190   1.474       .  S
N178        C179   1.366       .  A
C179        N180   1.362       .  A
C179        C282   1.498       .  S
C181        N182   1.352       .  A
C181       N1578   1.357       .  A
C181       C1658   1.480       .  S
N182        C183   1.356       .  A
C183        N184   1.363       .  A
C183        C201   1.471       .  S
N184        C185   1.365       .  A
C185       N1578   1.359       .  A
C185       C1677   1.490       .  S
N186       C1573   1.357       .  A
N186       C1577   1.359       .  A
O187       Ni193   1.920       .  S
O187        C208   1.270       .  A
O188       Ni211   1.925       .  S
O188        C197   1.273       .  A
O189       Ni193   1.881       .  S
O189       Ni211   1.908       .  S
O189       Ni205   1.914       .  S
O189        H212   0.966       .  S
C190        O207   1.283       .  A
C190        O199   1.277       .  A
O191       Ni210   1.924       .  S
O191        C197   1.271       .  A
O192       Ni210   1.897       .  S
O192        C194   1.270       .  A
Ni193       O196   1.912       .  S
Ni193       O198   1.898       .  S
C194        O204   1.274       .  A
O195       Ni211   1.935       .  S
O195        C201   1.279       .  A
O196        C201   1.276       .  A
O198        C200   1.269       .  A
O199       Ni210   1.916       .  S
C200        O206   1.273       .  A
H202        O203   0.966       .  S
O203       Ni211   1.906       .  S
O203       Ni205   1.904       .  S
O203       Ni210   1.876       .  S
O204       Ni205   1.945       .  S
Ni205       O209   1.927       .  S
Ni205       O207   1.941       .  S
O206       Ni211   1.939       .  S
C208        O209   1.275       .  A
O213       Ni219   1.946   1_554  S
O213        C234   1.276       .  A
O214       Ni933   1.897       .  S
O214        C223   1.267       .  A
O215       Ni219   1.929       .  S
O215       Ni237   1.907       .  S
O215       Ni231   1.914   1_556  S
O215        H238   0.967   1_556  S
C216        C685   1.486       .  S
C216        O233   1.268   1_565  A
C216        O921   1.273       .  A
O217       Ni236   1.940       .  S
O217        C223   1.273       .  A
O218       Ni236   1.916   1_554  S
O218        C220   1.271       .  A
Ni219       O222   1.944       .  S
Ni219      O1616   1.914       .  S
C220        C557   1.500       .  S
C220        O230   1.276       .  A
O221       Ni237   1.895       .  S
O221        C227   1.266       .  A
O222        C227   1.274       .  A
C223        C314   1.497       .  S
O224      Ni1611   1.914   1_455  S
O224        C226   1.275       .  A
O225      Ni1628   1.935   1_454  S
O225        C912   1.273       .  A
C226        C298   1.488       .  S
C226        O232   1.277       .  A
C227        C362   1.486       .  S
H228       O1621   0.966       .  S
O229       Ni237   1.899       .  S
O229       Ni231   1.899   1_556  S
O229       Ni932   1.923   1_545  S
O229       H1620   0.966       .  S
O230       Ni927   1.941       .  S
Ni231       O235   1.891       .  S
Ni231       O926   1.940       .  S
Ni231      O1625   1.895       .  S
O232      Ni1629   1.942   1_455  S
O233      Ni1623   1.895       .  S
C234        C634   1.501       .  S
C234        O235   1.262       .  A
Ni236      O1617   1.934   1_556  S
Ni236       O925   1.923       .  S
Ni237       O910   1.897   1_545  S
Ni237      O1624   1.941       .  S
O239       Ni245   1.941       .  S
O239        C260   1.275       .  A
O240       Ni263   1.883       .  S
O240        C249   1.267       .  A
O241       Ni245   1.922       .  S
O241       Ni263   1.903       .  S
O241       Ni257   1.922       .  S
O241        H264   0.966       .  S
C242        C461   1.485       .  S
C242        O259   1.266       .  A
C242        O251   1.273       .  A
O243       Ni262   1.939       .  S
O243        C249   1.274       .  A
O244       Ni262   1.915       .  S
O244        C246   1.276       .  A
Ni245       O248   1.946       .  S
Ni245       O250   1.924       .  S
C246        C493   1.491       .  S
C246        O256   1.276       .  A
O247       Ni263   1.918       .  S
O247        C253   1.271       .  A
O248        C253   1.275       .  A
C249        C394   1.494       .  S
O250        C252   1.276       .  A
O251       Ni262   1.940       .  S
C252        C269   1.489       .  S
C252        O258   1.274       .  A
C253        C349   1.498       .  S
H254        O255   0.966       .  S
O255       Ni263   1.915       .  S
O255       Ni257   1.890       .  S
O255       Ni262   1.920       .  S
O256       Ni257   1.932       .  S
Ni257       O261   1.903       .  S
Ni257       O259   1.899       .  S
O258       Ni263   1.924       .  S
C260        C426   1.487       .  S
C260        O261   1.266       .  A
C265        H272   1.084       .  S
C265       C1658   1.407       .  A
C265       C1662   1.409       .  A
C266       C1573   1.480       .  S
C266        C267   1.412       .  A
C266       C1657   1.407       .  A
C267        C268   1.398       .  A
C267        C274   1.509       .  S
C268        H273   1.084       .  S
C268        C269   1.409       .  A
C269        C270   1.416       .  A
C270       C1657   1.409       .  A
C270        C271   1.507       .  S
C271        H276   1.111       .  S
C271        H277   1.110       .  S
C271       H1667   1.111   1_455  S
C274        H278   1.110       .  S
C274        H279   1.109       .  S
C274        H280   1.109       .  S
H275       C1663   1.111       .  S
C281        H288   1.084       .  S
C281        C282   1.407       .  A
C281        C286   1.406       .  A
C282        C283   1.421       .  A
C283        C284   1.408       .  A
C283        C290   1.506       .  S
C284       H1681   1.084       .  S
C284        C285   1.404       .  A
C285       C1577   1.490       .  S
C285        C286   1.417       .  A
C286        C287   1.508       .  S
C287        H291   1.111       .  S
C287        H292   1.109       .  S
C287        H293   1.110       .  S
H289       C1676   1.084       .  S
C290        H294   1.110       .  S
C290        H295   1.109       .  S
C290       H1688   1.111       .  S
H296       C1682   1.111       .  S
C297        H304   1.084       .  S
C297        C298   1.407       .  A
C297        C302   1.405       .  A
C298        C299   1.418       .  A
C299        C300   1.406       .  A
C299        C306   1.508       .  S
C300        H305   1.084       .  S
C300        C301   1.403       .  A
C301        C302   1.411       .  A
C302        C303   1.505       .  S
C303        H307   1.111       .  S
C303        H308   1.105       .  S
C303        H309   1.110       .  S
C306        H310   1.108       .  S
C306        H311   1.110       .  S
C306        H312   1.111       .  S
C313        H320   1.084       .  S
C313        C314   1.409       .  A
C313        C318   1.401       .  A
C314        C315   1.425       .  A
C315        C316   1.409       .  A
C315        C322   1.507       .  S
C316        H321   1.084       .  S
C316        C317   1.398       .  A
C317        C318   1.410       .  A
C318        C319   1.509       .  S
C319        H323   1.111       .  S
C319        H324   1.110       .  S
C319        H325   1.109       .  S
C322        H327   1.110       .  S
C322        H328   1.111       .  S
C322       H2414   1.110       .  S
H326       C2410   1.110       .  S
C329        H336   1.084       .  S
C329        C330   1.401       .  A
C329        C334   1.403       .  A
C330        C863   1.478       .  S
C330        C331   1.419       .  A
C331        C332   1.400       .  A
C331       C1034   1.511       .  S
C332        H337   1.084       .  S
C332        C333   1.403       .  A
C333       C1563   1.482   1_455  S
C333        C334   1.420       .  A
C334        C335   1.509       .  S
C335        H339   1.109       .  S
C335        H341   1.111       .  S
C335       H1732   1.109       .  S
C338       C1027   1.511       .  S
C338        H342   1.110       .  S
C338        H343   1.110       .  S
C338        H344   1.111       .  S
H340       C1727   1.109       .  S
C345        H352   1.084       .  S
C345        C350   1.408       .  A
C345       C1042   1.402       .  A
C346        C347   1.411       .  A
C346       C1041   1.402       .  A
C347       C1044   1.410       .  A
C347        C354   1.506       .  S
C348        H353   1.084       .  S
C348        C349   1.409       .  A
C348       C1043   1.410       .  A
C349        C350   1.421       .  A
C350        C351   1.509       .  S
C351        H355   1.111       .  S
C351        H356   1.108       .  S
C351        H357   1.110       .  S
C354        H358   1.111       .  S
C354        H359   1.110       .  S
C354        H360   1.111       .  S
C361        H368   1.084       .  S
C361        C362   1.405       .  A
C361        C366   1.402       .  A
C362        C363   1.420       .  A
C363        C364   1.404       .  A
C363        C370   1.507       .  S
C364        H369   1.084       .  S
C364        C365   1.399       .  A
C365        C366   1.415       .  A
C366        C367   1.509       .  S
C367        H371   1.111   1_545  S
C367        H372   1.109   1_545  S
C367        H373   1.110       .  S
C370        H375   1.109       .  S
C370        H376   1.111       .  S
C370       H1070   1.109       .  S
H374       C1066   1.109       .  S
C377        H384   1.084       .  S
C377        C382   1.406       .  A
C377       C1074   1.408       .  A
C378        C379   1.416   1_545  A
C378       C1073   1.408   1_545  A
C379        C380   1.400       .  A
C379        C386   1.509   1_565  S
C380        H385   1.083       .  S
C380       C1077   1.404       .  A
C381        C382   1.413       .  A
C381       C1076   1.403       .  A
C382        C383   1.508       .  S
C383        H387   1.110       .  S
C383        H388   1.111       .  S
C383        H389   1.110       .  S
C386        H390   1.110       .  S
C386        H391   1.110       .  S
C386        H392   1.111   1_545  S
C393        H400   1.084       .  S
C393        C394   1.407       .  A
C393        C398   1.395       .  A
C394        C395   1.421       .  A
C395        C396   1.411       .  A
C395        C402   1.507       .  S
C396        H401   1.084       .  S
C396        C397   1.404       .  A
C397        C398   1.417       .  A
C398        C399   1.510       .  S
C399        H403   1.110       .  S
C399        H404   1.107       .  S
C399        H405   1.111       .  S
C402        H406   1.111       .  S
C402        H407   1.109       .  S
C402        H408   1.111       .  S
C409        H416   1.084       .  S
C409        C410   1.410       .  A
C409        C414   1.412       .  A
C410        C411   1.418       .  A
C411        C412   1.409       .  A
C411        C418   1.509       .  S
C412        H417   1.083       .  S
C412        C413   1.409       .  A
C413       C1513   1.502       .  S
C413        C414   1.419       .  A
C414       C1807   1.508       .  S
C415       C1806   1.508       .  S
C415        H420   1.110       .  S
C415       H1811   1.111       .  S
C415       H1813   1.109       .  S
C418        H422   1.109       .  S
C418        H423   1.110       .  S
C418        H424   1.111       .  S
H419       C1807   1.111       .  S
H421       C1807   1.109       .  S
C425        H432   1.084       .  S
C425        C426   1.406       .  A
C425        C430   1.413   1_455  A
C426       C1819   1.412       .  A
C427        C428   1.402       .  A
C427       C1818   1.412       .  A
C427        C434   1.508       .  S
C428        H433   1.083       .  S
C428        C429   1.408       .  A
C429       C1822   1.420       .  A
C430       C1821   1.420       .  A
C430        C431   1.507       .  S
C431        H435   1.111       .  S
C431        H436   1.108       .  S
C431        H437   1.111       .  S
C434        H439   1.109       .  S
C434        H440   1.111       .  S
C434       H1830   1.111       .  S
H438       C1826   1.111       .  S
C441        H448   1.084       .  S
C441        C442   1.406       .  A
C441        C446   1.404       .  A
C442        C443   1.418       .  A
C443        C444   1.402       .  A
C443        C450   1.510       .  S
C444        H449   1.084       .  S
C444        C445   1.404       .  A
C445        C446   1.416       .  A
C446        C447   1.510       .  S
C447        H451   1.111       .  S
C447        H452   1.109       .  S
C447        H453   1.111       .  S
C450        H454   1.110       .  S
C450        H455   1.109       .  S
C450        H456   1.111       .  S
C457        H464   1.085       .  S
C457        C458   1.400       .  A
C457        C462   1.403       .  A
C458        C459   1.407       .  A
C459        C460   1.402       .  A
C459        C466   1.507       .  S
C460        H465   1.084       .  S
C460        C461   1.410       .  A
C461        C462   1.418       .  A
C462        C463   1.508       .  S
C463        H467   1.111       .  S
C463        H468   1.110       .  S
C463        H469   1.109       .  S
C466        H470   1.110       .  S
C466        H471   1.111       .  S
C466        H472   1.110       .  S
C473        H480   1.084   1_545  S
C473        C474   1.410       .  A
C473        C478   1.408       .  A
C474        C475   1.415       .  A
C475        C476   1.412       .  A
C475        C482   1.507       .  S
C476        H481   1.084       .  S
C476        C477   1.411       .  A
C477        C478   1.415       .  A
C478        C479   1.508   1_545  S
C479        H483   1.111       .  S
C479        H484   1.111       .  S
C479        H485   1.109   1_565  S
C482        H486   1.109       .  S
C482        H487   1.111       .  S
C482        H488   1.111       .  S
C489        H496   1.085       .  S
C489        C494   1.394       .  A
C489       C1186   1.398       .  A
C490        C491   1.411       .  A
C490       C1185   1.398       .  A
C491       C1188   1.411       .  A
C491        C498   1.505   1_565  S
C492       H1193   1.084       .  S
C492        C493   1.411       .  A
C492       C1187   1.411       .  A
C493        C494   1.425       .  A
C494        C495   1.512       .  S
C495        H499   1.111       .  S
C495        H500   1.109       .  S
C495        H501   1.107       .  S
H497       C1188   1.084       .  S
C498        H502   1.110       .  S
C498        H503   1.110   1_545  S
C498        H504   1.111       .  S
C505       H1904   1.083       .  S
C505        C506   1.413       .  A
C505        C510   1.404       .  A
C506        C507   1.421       .  A
C507        C508   1.408       .  A
C507        C514   1.508       .  S
C508        H513   1.084       .  S
C508        C509   1.405       .  A
C509        C510   1.409       .  A
C510        C511   1.508       .  S
C511        H515   1.111       .  S
C511        H516   1.110       .  S
C511        H517   1.110       .  S
H512       C1897   1.083       .  S
C514        H518   1.110       .  S
C514        H519   1.108       .  S
C514        H520   1.111       .  S
C521        H528   1.084       .  S
C521        C522   1.399       .  A
C521        C526   1.403       .  A
C522        C523   1.406       .  A
C523        C524   1.398       .  A
C523        C530   1.507       .  S
C524        H529   1.084       .  S
C524        C525   1.405       .  A
C525        C526   1.417       .  A
C526        C527   1.508       .  S
C527        H531   1.111       .  S
C527        H532   1.109       .  S
C527        H533   1.110       .  S
C530        H534   1.110       .  S
C530        H535   1.110       .  S
C530        H536   1.109       .  S
C537        H544   1.084       .  S
C537        C538   1.410       .  A
C537        C542   1.405       .  A
C538        C539   1.415       .  A
C539        C540   1.412       .  A
C539        C546   1.506       .  S
C540        H545   1.084       .  S
C540        C541   1.408       .  A
C541        C542   1.412       .  A
C542        C543   1.508       .  S
C543        H547   1.111       .  S
C543        H548   1.109       .  S
C543        H549   1.110       .  S
C546        H550   1.111       .  S
C546        H551   1.109       .  S
C546        H552   1.111       .  S
C553        H560   1.084       .  S
C553        C554   1.401       .  A
C553        C558   1.410       .  A
C554        C555   1.411       .  A
C555        C556   1.407       .  A
C555        C562   1.506       .  S
C556        H561   1.084       .  S
C556        C557   1.411       .  A
C557        C558   1.423       .  A
C558        C559   1.508       .  S
C559        H563   1.111       .  S
C559        H564   1.109       .  S
C559        H565   1.110       .  S
C562        H566   1.110       .  S
C562        H567   1.110       .  S
C562        H568   1.111       .  S
C569        H576   1.084       .  S
C569        C570   1.410       .  A
C569        C574   1.410       .  A
C570        C571   1.419       .  A
C571        C572   1.406       .  A
C571        C578   1.509       .  S
C572        H577   1.084       .  S
C572        C573   1.405       .  A
C573        C574   1.416       .  A
C574        C575   1.508       .  S
C575        H579   1.111       .  S
C575        H580   1.110       .  S
C575        H581   1.109       .  S
C578        H584   1.111       .  S
C578       H1974   1.109       .  S
C578       H1975   1.110       .  S
H582       C1970   1.109       .  S
H583       C1970   1.110       .  S
C585        H592   1.083       .  S
C585        C586   1.414       .  A
C585        C590   1.406       .  A
C586        C587   1.418       .  A
C587        C588   1.405       .  A
C587        C594   1.508       .  S
C588        H593   1.084       .  S
C588        C589   1.409       .  A
C589        C590   1.412       .  A
C590        C591   1.508       .  S
C591        H595   1.111       .  S
C591        H596   1.110       .  S
C591        H597   1.110       .  S
C594        H598   1.109       .  S
C594        H599   1.110       .  S
C594        H600   1.111       .  S
C601        H608   1.084       .  S
C601        C602   1.409       .  A
C601        C606   1.407       .  A
C602        C603   1.426       .  A
C603        C604   1.409       .  A
C603        C610   1.505       .  S
C604        H609   1.084       .  S
C604        C605   1.398       .  A
C605        C606   1.410       .  A
C606       C1303   1.507   1_545  S
C607       C1302   1.507       .  S
C607        H611   1.111       .  S
C607        H612   1.110       .  S
C607        H613   1.111       .  S
C610        H614   1.106       .  S
C610        H615   1.110       .  S
C610        H616   1.111       .  S
C617        H624   1.084       .  S
C617        C618   1.404       .  A
C617        C622   1.401       .  A
C618        C619   1.423       .  A
C619        C620   1.402       .  A
C619        C626   1.511       .  S
C620        H625   1.084       .  S
C620        C621   1.400       .  A
C621        C622   1.416       .  A
C622        C623   1.510       .  S
C623        H627   1.110       .  S
C623        H628   1.109   1_545  S
C623        H629   1.110   1_545  S
C626        H630   1.110       .  S
C626       H2023   1.109       .  S
C626       H2024   1.111       .  S
H631       C2018   1.109       .  S
H632       C2018   1.111       .  S
C633        H640   1.083       .  S
C633        C634   1.412       .  A
C633        C638   1.408       .  A
C634        C635   1.427       .  A
C635        C636   1.404       .  A
C635        C642   1.510       .  S
C636        H641   1.085       .  S
C636        C637   1.398       .  A
C637        C638   1.407       .  A
C638        C639   1.505       .  S
C639        H643   1.111       .  S
C639        H645   1.110       .  S
C639       H2036   1.110       .  S
C642        H647   1.109       .  S
C642        H648   1.111       .  S
C642       H2038   1.110       .  S
H644       C2031   1.110       .  S
H646       C2034   1.110       .  S
C649        H656   1.084       .  S
C649        C650   1.403       .  A
C649        C654   1.407       .  A
C650        C651   1.408       .  A
C651        C652   1.396       .  A
C651        C658   1.510       .  S
C652        H657   1.084       .  S
C652        C653   1.410       .  A
C653        C654   1.416       .  A
C654        C655   1.506       .  S
C655        H659   1.111       .  S
C655        H660   1.109       .  S
C655        H661   1.110       .  S
C658        H662   1.110       .  S
C658        H663   1.108       .  S
C658        H664   1.111       .  S
C665        H672   1.083       .  S
C665        C666   1.405       .  A
C665        C670   1.400       .  A
C666        C667   1.419       .  A
C667        C668   1.404       .  A
C667        C674   1.509       .  S
C668        H673   1.084       .  S
C668        C669   1.406       .  A
C669        C670   1.419       .  A
C670        C671   1.511       .  S
C671        H675   1.111       .  S
C671        H676   1.110       .  S
C671        H677   1.110       .  S
C674        H678   1.110       .  S
C674        H679   1.110       .  S
C674        H680   1.111       .  S
C681        H688   1.084       .  S
C681        C682   1.398       .  A
C681        C686   1.400       .  A
C682       C1379   1.414       .  A
C683        C684   1.401       .  A
C683       C1378   1.415   1_545  A
C683        C690   1.509       .  S
C684        H689   1.084       .  S
C684        C685   1.406   1_545  A
C685       C1382   1.422       .  A
C686       C1381   1.422       .  A
C686       C2079   1.508       .  S
C687       C2078   1.508       .  S
C687        H691   1.111       .  S
C687        H692   1.110       .  S
C687       H1389   1.109       .  S
C690        H695   1.109       .  S
C690        H696   1.111       .  S
C690       H1390   1.110       .  S
H693       C1383   1.109       .  S
H694       C1386   1.110       .  S
C697        N698   1.360       .  A
C697       C1378   1.474       .  S
N698        C699   1.354       .  A
C699        N700   1.354       .  A
C699        C754   1.453       .  S
C701        N702   1.356       .  A
C701       C1365   1.487       .  S
C703        N704   1.354       .  A
C703        N708   1.359       .  A
C703       C1346   1.468       .  S
N704        C705   1.354       .  A
C705        N706   1.354       .  A
C705       C1362   1.488       .  S
N706        C707   1.358       .  A
C707        N708   1.359       .  A
C707        C743   1.455       .  S
C709       N2102   1.365       .  A
C709        N714   1.361       .  A
C709       C1333   1.476       .  S
N710       C2101   1.365       .  A
N710        C711   1.362       .  A
C711       N2104   1.352   1_455  A
C711        C740   1.462       .  S
N712       C2103   1.352       .  A
N712        C713   1.346       .  A
C713        N714   1.358       .  A
C713       C1314   1.486       .  S
C715        N720   1.360       .  A
C715       C1301   1.478       .  S
N716        C717   1.366       .  A
C717        C746   1.467       .  S
N718        C719   1.346       .  A
C719        N720   1.354       .  A
C719       C1317   1.477       .  S
C721        N722   1.362       .  A
C721       N2118   1.354       .  A
C721       C1282   1.501       .  S
N722        C723   1.365       .  A
C723       N2116   1.364       .  A
C723       C1266   1.497       .  S
N724       C2115   1.364       .  A
N724        C725   1.359       .  A
C725        N726   1.354       .  A
C725        C736   1.471   1_655  S
N726       C2113   1.354       .  A
C727        N728   1.359       .  A
C727        N732   1.358       .  A
C727       C1250   1.484       .  S
N728        C729   1.363       .  A
C729        N730   1.361       .  A
C729        C747   1.477       .  S
N730        C731   1.362       .  A
C731        N732   1.362       .  A
C731       C1269   1.491       .  S
O733       Ni739   1.919       .  S
O733        C754   1.271       .  A
O734       Ni757   1.915       .  S
O734        C743   1.271       .  A
O735       Ni739   1.876       .  S
O735       Ni757   1.894       .  S
O735       Ni751   1.911       .  S
O735        H758   0.966       .  S
C736        O753   1.281       .  A
C736        O745   1.276       .  A
O737       Ni756   1.917       .  S
O737        C743   1.270       .  A
O738       Ni756   1.898       .  S
O738        C740   1.269       .  A
Ni739       O742   1.921       .  S
Ni739       O744   1.899       .  S
C740        O750   1.272       .  A
O741       Ni757   1.942       .  S
O741        C747   1.284       .  A
O742        C747   1.278       .  A
O744        C746   1.269       .  A
O745       Ni756   1.910       .  S
C746        O752   1.271       .  A
H748        O749   0.966       .  S
O749       Ni757   1.912       .  S
O749       Ni751   1.896       .  S
O749       Ni756   1.874       .  S
O750       Ni751   1.935       .  S
Ni751       O755   1.911       .  S
Ni751       O753   1.941       .  S
O752       Ni757   1.937       .  S
C754        O755   1.271       .  A
O759       Ni765   1.935       .  S
O759        C780   1.272       .  A
O760       Ni783   1.887       .  S
O760        C769   1.264       .  A
O761       Ni765   1.925       .  S
O761       Ni783   1.892       .  S
O761       Ni777   1.917       .  S
O761        H784   0.966       .  S
C762       C1298   1.501       .  S
C762        O779   1.269       .  A
C762        O771   1.280       .  A
O763       Ni782   1.950       .  S
O763        C769   1.277       .  A
O764       Ni782   1.923       .  S
O764        C766   1.273       .  A
Ni765       O768   1.928       .  S
Ni765       O770   1.917       .  S
C766       C1285   1.492       .  S
C766        O776   1.270       .  A
O767       Ni783   1.898       .  S
O767        C773   1.265       .  A
O768        C773   1.269       .  A
C769       C1205   1.483       .  S
O770        C772   1.277       .  A
O771       Ni782   1.954       .  S
C772       C1237   1.488       .  S
C772        O778   1.281       .  A
C773       C1221   1.474       .  S
H774        O775   0.965       .  S
O775       Ni783   1.913       .  S
O775       Ni777   1.900       .  S
O775       Ni782   1.929       .  S
O776       Ni777   1.924       .  S
Ni777       O781   1.875       .  S
Ni777       O779   1.909       .  S
O778       Ni783   1.949       .  S
C780       C1349   1.484       .  S
C780        O781   1.262       .  A
C785        N786   1.356       .  A
C785        N790   1.363       .  A
C785       C1186   1.477       .  S
N786        C787   1.350       .  A
C787        N788   1.362       .  A
C787       C1170   1.499       .  S
N788        C789   1.371       .  A
C789        N790   1.364       .  A
C789        C828   1.486       .  S
C791        N792   1.358       .  A
C791        N796   1.371       .  A
C791       C1234   1.496       .  S
N792        C793   1.353       .  A
C793        N794   1.362       .  A
C793       C1173   1.499       .  S
N794        C795   1.368       .  A
C795        N796   1.369       .  A
C795        C834   1.498       .  S
C797        N798   1.354       .  A
C797        N802   1.359       .  A
C797       C1154   1.466       .  S
N798        C799   1.352       .  A
C799        N800   1.357       .  A
C799       C1141   1.482       .  S
N800        C801   1.357       .  A
C801        N802   1.361       .  A
C801        C835   1.461       .  S
C803        N804   1.356       .  A
C803        N808   1.353       .  A
C803       C1218   1.460       .  S
N804        C805   1.357       .  A
C805        N806   1.361       .  A
C805        C824   1.462       .  S
N806        C807   1.361       .  A
C807        N808   1.353       .  A
C807       C1138   1.485       .  S
C809        N810   1.362       .  A
C809        N814   1.360       .  A
C809       C1125   1.498       .  S
N810        C811   1.364       .  A
C811        N812   1.365       .  A
C811       C1106   1.502       .  S
N812        C813   1.362       .  A
C813        N814   1.357       .  A
C813        C842   1.472       .  S
C815        N816   1.361       .  A
C815       N2212   1.356       .  A
C815       C1202   1.502       .  S
N816       C2209   1.364       .  A
C817       N2208   1.364       .  A
C817        N818   1.366       .  A
C817       C2501   1.503       .  S
N818        C819   1.363       .  A
C819        N820   1.353       .  A
C819       C2223   1.467       .  S
N820       C2207   1.356       .  A
O821      Ni1523   1.926   1_565  S
O821        C842   1.273       .  A
O822       Ni845   1.913   1_455  S
O822       C2223   1.272   1_455  A
O823      Ni2219   1.885       .  S
O823      Ni2237   1.894       .  S
O823        H846   0.966       .  S
C824        O841   1.273       .  A
C824        O833   1.275       .  A
O825       Ni844   1.924       .  S
O825        C831   1.272       .  A
O826       Ni844   1.901       .  S
O826        C828   1.269       .  A
Ni827      O1517   1.927       .  S
Ni827       O830   1.924       .  S
Ni827       O832   1.919       .  S
Ni827      O2215   1.885   1_455  S
C828        O838   1.285       .  A
O829       Ni845   1.920   1_455  S
O829        C835   1.276       .  A
O830        C835   1.276       .  A
C831       C2211   1.466       .  S
C831       O2214   1.272       .  A
O832        C834   1.273       .  A
C834        O840   1.282       .  A
H836        O837   0.966       .  S
O837      Ni2237   1.924       .  S
O837       Ni844   1.895       .  S
Ni839       O843   1.925       .  S
Ni839       O841   1.916       .  S
O840       Ni845   1.964   1_455  S
C842        O843   1.277       .  A
Ni845      O2215   1.894       .  S
Ni845      O2229   1.924       .  S
C847        N848   1.366       .  A
C847        N852   1.351       .  A
C847       C1093   1.485       .  S
N848        C849   1.366       .  A
C849        N850   1.362       .  A
C849        C904   1.468       .  S
N850        C851   1.356       .  A
C851        N852   1.348       .  A
C851       C1077   1.479       .  S
C853        N854   1.357       .  A
C853        N858   1.364       .  A
C853       C1061   1.476       .  S
N854        C855   1.354       .  A
C855        N856   1.356       .  A
C855       C1074   1.484       .  S
N856        C857   1.358       .  A
C857        N858   1.361       .  A
C857        C893   1.468       .  S
C859        N860   1.372       .  A
C859       C1042   1.482       .  S
N860        C861   1.368       .  A
C861        N862   1.351       .  A
C861        C890   1.471       .  S
N862        C863   1.344       .  A
C865       N2258   1.358       .  A
C865        N870   1.366       .  A
C865       C1013   1.473       .  S
N866       C2257   1.358       .  A
N866       C2259   1.354       .  A
C867       N2258   1.354       .  A
C867        N868   1.346       .  A
C867       C2421   1.480       .  S
N868        C869   1.353       .  A
C869        N870   1.364       .  A
C869        C896   1.463       .  S
C871        N872   1.355       .  A
C871        N876   1.360       .  A
C871        C997   1.480       .  S
N872        C873   1.359       .  A
C873        N874   1.361       .  A
C873        C886   1.474       .  S
N874        C875   1.366       .  A
C875        N876   1.362       .  A
C875        C978   1.496       .  S
C877        N878   1.353       .  A
C877       N2274   1.358       .  A
C877       C2354   1.485       .  S
N878        C879   1.356       .  A
C879        N880   1.362       .  A
C879        C897   1.471       .  S
N880        C881   1.365       .  A
C881       N2274   1.359       .  A
C881       C2373   1.488       .  S
N882       C2269   1.357       .  A
N882       C2273   1.359       .  A
O883       Ni889   1.921       .  S
O883        C904   1.270       .  A
O884       Ni907   1.925       .  S
O884        C893   1.273       .  A
O885       Ni889   1.883       .  S
O885       Ni907   1.909       .  S
O885       Ni901   1.915       .  S
O885        H908   0.966       .  S
C886        O903   1.283       .  A
C886        O895   1.277       .  A
O887       Ni906   1.924       .  S
O887        C893   1.271       .  A
O888       Ni906   1.897       .  S
O888        C890   1.270       .  A
Ni889       O892   1.914       .  S
Ni889       O894   1.896       .  S
C890        O900   1.274       .  A
O891       Ni907   1.932       .  S
O891        C897   1.278       .  A
O892        C897   1.277       .  A
O894        C896   1.269       .  A
O895       Ni906   1.916       .  S
C896        O902   1.273       .  A
H898        O899   0.966       .  S
O899       Ni907   1.905       .  S
O899       Ni901   1.904       .  S
O899       Ni906   1.877       .  S
O900       Ni901   1.945       .  S
Ni901       O905   1.927       .  S
Ni901       O903   1.941       .  S
O902       Ni907   1.938       .  S
C904        O905   1.275       .  A
O909       Ni915   1.946   1_554  S
O909        C930   1.276       .  A
O910        C919   1.267       .  A
O911       Ni915   1.929       .  S
O911       Ni933   1.908       .  S
O911       Ni927   1.914   1_556  S
O911        H934   0.967   1_556  S
C912       C1381   1.486       .  S
C912        O929   1.268       .  A
O913       Ni932   1.941       .  S
O913        C919   1.273       .  A
O914       Ni932   1.916   1_554  S
O914        C916   1.272       .  A
Ni915       O918   1.943       .  S
Ni915      O2312   1.914       .  S
C916       C1253   1.499       .  S
C916        O926   1.276   1_565  A
O917       Ni933   1.897       .  S
O917        C923   1.266       .  A
O918        C923   1.273       .  A
C919       C1010   1.498       .  S
O920      Ni2307   1.914   1_455  S
O920        C922   1.275       .  A
O921      Ni2324   1.935   1_454  S
C922        C994   1.488       .  S
C922        O928   1.277       .  A
C923       C1058   1.486       .  S
H924       O2317   0.966       .  S
O925       Ni933   1.900       .  S
O925       Ni927   1.900   1_556  S
O925       H2316   0.966       .  S
Ni927       O931   1.891       .  S
Ni927      O2321   1.895       .  S
O928      Ni2325   1.941   1_455  S
O929      Ni2319   1.896       .  S
C930       C1330   1.501       .  S
C930        O931   1.262       .  A
Ni932      O2313   1.935   1_556  S
Ni933      O2320   1.941       .  S
O935       Ni941   1.941       .  S
O935        C956   1.275       .  A
O936       Ni959   1.883       .  S
O936        C945   1.267       .  A
O937       Ni941   1.922       .  S
O937       Ni959   1.903       .  S
O937       Ni953   1.922       .  S
O937        H960   0.966       .  S
C938       C1157   1.485       .  S
C938        O955   1.266       .  A
C938        O947   1.273       .  A
O939       Ni958   1.939       .  S
O939        C945   1.274       .  A
O940       Ni958   1.913       .  S
O940        C942   1.275       .  A
Ni941       O944   1.947       .  S
Ni941       O946   1.924       .  S
C942       C1189   1.491       .  S
C942        O952   1.276       .  A
O943       Ni959   1.918       .  S
O943        C949   1.271       .  A
O944        C949   1.275       .  A
C945       C1090   1.495       .  S
O946        C948   1.276       .  A
O947       Ni958   1.940       .  S
C948        C965   1.492       .  S
C948        O954   1.273       .  A
C949       C1045   1.498   1_565  S
H950        O951   0.966       .  S
O951       Ni959   1.914       .  S
O951       Ni953   1.890       .  S
O951       Ni958   1.920       .  S
O952       Ni953   1.933       .  S
Ni953       O957   1.904       .  S
Ni953       O955   1.899       .  S
O954       Ni959   1.923       .  S
C956       C1122   1.487       .  S
C956        O957   1.266       .  A
C961        H968   1.084       .  S
C961       C2354   1.408       .  A
C961       C2358   1.409       .  A
C962       C2269   1.482       .  S
C962       C2353   1.407       .  A
C962        C963   1.413       .  A
C963        C964   1.398       .  A
C963        C970   1.510       .  S
C964        H969   1.084       .  S
C964        C965   1.411       .  A
C965        C966   1.416       .  A
C966       C2353   1.408       .  A
C966        C967   1.507       .  S
C967       H2363   1.111   1_455  S
C967        H972   1.111       .  S
C967        H973   1.110       .  S
C970        H974   1.110       .  S
C970        H975   1.110       .  S
C970        H976   1.110       .  S
H971       C2359   1.111       .  S
C977        H984   1.084       .  S
C977        C978   1.406       .  A
C977        C982   1.406       .  A
C978        C979   1.420       .  A
C979        C980   1.408       .  A
C979        C986   1.506       .  S
C980       H2377   1.084       .  S
C980        C981   1.404       .  A
C981       C2273   1.489       .  S
C981        C982   1.416       .  A
C982        C983   1.508       .  S
C983        H987   1.111       .  S
C983        H988   1.109       .  S
C983        H989   1.110       .  S
H985       C2372   1.084       .  S
C986        H990   1.110       .  S
C986        H991   1.109       .  S
C986       H2384   1.111       .  S
H992       C2378   1.111       .  S
C993       H1000   1.084       .  S
C993        C994   1.407       .  A
C993        C998   1.405       .  A
C994        C995   1.418       .  A
C995        C996   1.406       .  A
C995       C1002   1.508       .  S
C996       H1001   1.084       .  S
C996        C997   1.403       .  A
C997        C998   1.411       .  A
C998        C999   1.505       .  S
C999       H1003   1.111       .  S
C999       H1004   1.105       .  S
C999       H1005   1.110       .  S
C1002      H1006   1.108       .  S
C1002      H1007   1.110       .  S
C1002      H1008   1.111       .  S
C1009      H1016   1.084       .  S
C1009      C1010   1.409       .  A
C1009      C1014   1.402       .  A
C1010      C1011   1.425       .  A
C1011      C1012   1.409       .  A
C1011      C1018   1.507       .  S
C1012      H1017   1.084       .  S
C1012      C1013   1.398       .  A
C1013      C1014   1.411       .  A
C1014      C1015   1.509       .  S
C1015      H1019   1.111       .  S
C1015      H1020   1.110       .  S
C1015      H1021   1.109       .  S
C1018      H1718   1.110       .  S
C1018      H1023   1.110       .  S
C1018      H1024   1.111       .  S
H1022      C1714   1.110       .  S
C1025      H1032   1.084       .  S
C1025      C1026   1.401   1_565  A
C1025      C1030   1.402       .  A
C1026      C1027   1.418       .  A
C1027      C1028   1.399   1_545  A
C1028      H1033   1.084       .  S
C1028      C1029   1.403       .  A
C1029      C2259   1.481   1_455  S
C1029      C1030   1.420       .  A
C1030      C1031   1.510       .  S
C1031      H1035   1.111       .  S
C1031      H2428   1.109       .  S
C1031      H1037   1.111       .  S
C1034      H1038   1.110       .  S
C1034      H1039   1.110       .  S
C1034      H1040   1.111       .  S
H1036      C2423   1.109       .  S
C1041      H1048   1.084       .  S
C1041      C1046   1.408       .  A
C1042      C1043   1.411       .  A
C1043      C1050   1.506       .  S
C1044      H1049   1.084       .  S
C1044      C1045   1.410       .  A
C1045      C1046   1.421       .  A
C1046      C1047   1.509       .  S
C1047      H1051   1.111       .  S
C1047      H1052   1.108       .  S
C1047      H1053   1.110       .  S
C1050      H1054   1.111       .  S
C1050      H1055   1.110       .  S
C1050      H1056   1.111       .  S
C1057      H1064   1.084       .  S
C1057      C1058   1.405       .  A
C1057      C1062   1.403       .  A
C1058      C1059   1.421       .  A
C1059      C1060   1.404       .  A
C1059      C1066   1.507       .  S
C1060      H1065   1.084       .  S
C1060      C1061   1.398       .  A
C1061      C1062   1.415       .  A
C1062      C1063   1.509       .  S
C1063      H1067   1.111       .  S
C1063      H1068   1.109       .  S
C1063      H1069   1.110       .  S
C1066      H1071   1.109       .  S
C1066      H1072   1.111       .  S
C1073      H1080   1.084       .  S
C1073      C1078   1.406       .  A
C1074      C1075   1.416       .  A
C1075      C1076   1.400       .  A
C1075      C1082   1.509       .  S
C1076      H1081   1.083       .  S
C1077      C1078   1.413       .  A
C1078      C1079   1.507       .  S
C1079      H1083   1.110       .  S
C1079      H1084   1.111       .  S
C1079      H1085   1.110       .  S
C1082      H1086   1.110       .  S
C1082      H1087   1.110       .  S
C1082      H1088   1.111       .  S
C1089      H1096   1.084       .  S
C1089      C1090   1.407       .  A
C1089      C1094   1.395       .  A
C1090      C1091   1.422       .  A
C1091      C1092   1.411       .  A
C1091      C1098   1.507       .  S
C1092      H1097   1.084       .  S
C1092      C1093   1.404       .  A
C1093      C1094   1.418       .  A
C1094      C1095   1.511       .  S
C1095      H1099   1.111       .  S
C1095      H1100   1.108       .  S
C1095      H1101   1.110       .  S
C1098      H1102   1.111       .  S
C1098      H1103   1.109       .  S
C1098      H1104   1.111       .  S
C1105      H1112   1.084       .  S
C1105      C1106   1.410       .  A
C1105      C1110   1.412       .  A
C1106      C1107   1.418       .  A
C1107      C1108   1.409       .  A
C1107      C1114   1.509       .  S
C1108      H1113   1.084       .  S
C1108      C1109   1.409       .  A
C1109      C2209   1.502       .  S
C1109      C1110   1.419       .  A
C1110      C2503   1.508       .  S
C1111      C2502   1.508       .  S
C1111      H2507   1.111       .  S
C1111      H1116   1.110       .  S
C1111      H2509   1.109       .  S
C1114      H1118   1.109       .  S
C1114      H1119   1.110       .  S
C1114      H1120   1.111       .  S
H1115      C2503   1.111       .  S
H1117      C2503   1.109       .  S
C1121      H1128   1.084       .  S
C1121      C1122   1.406       .  A
C1121      C1126   1.413   1_455  A
C1122      C2515   1.412       .  A
C1123      C2514   1.412       .  A
C1123      C1124   1.403       .  A
C1123      C1130   1.508       .  S
C1124      H1129   1.083       .  S
C1124      C1125   1.408       .  A
C1125      C2518   1.420       .  A
C1126      C2517   1.420       .  A
C1126      C1127   1.507       .  S
C1127      H1131   1.111       .  S
C1127      H1132   1.108       .  S
C1127      H1133   1.111       .  S
C1130      H2526   1.111       .  S
C1130      H1135   1.109       .  S
C1130      H1136   1.111       .  S
H1134      C2522   1.111       .  S
C1137      H1144   1.084       .  S
C1137      C1138   1.406       .  A
C1137      C1142   1.404       .  A
C1138      C1139   1.419       .  A
C1139      C1140   1.402       .  A
C1139      C1146   1.510       .  S
C1140      H1145   1.084       .  S
C1140      C1141   1.404       .  A
C1141      C1142   1.416       .  A
C1142      C1143   1.510       .  S
C1143      H1147   1.111       .  S
C1143      H1148   1.109       .  S
C1143      H1149   1.111       .  S
C1146      H1150   1.110       .  S
C1146      H1151   1.109       .  S
C1146      H1152   1.111       .  S
C1153      H1160   1.085       .  S
C1153      C1154   1.400       .  A
C1153      C1158   1.403       .  A
C1154      C1155   1.407       .  A
C1155      C1156   1.401       .  A
C1155      C1162   1.507       .  S
C1156      H1161   1.084       .  S
C1156      C1157   1.410       .  A
C1157      C1158   1.418       .  A
C1158      C1159   1.508       .  S
C1159      H1163   1.111       .  S
C1159      H1164   1.110       .  S
C1159      H1165   1.109       .  S
C1162      H1166   1.110       .  S
C1162      H1167   1.111       .  S
C1162      H1168   1.110       .  S
C1169      H1176   1.084       .  S
C1169      C1170   1.410       .  A
C1169      C1174   1.409       .  A
C1170      C1171   1.415       .  A
C1171      C1172   1.413       .  A
C1171      C1178   1.507       .  S
C1172      H1177   1.084       .  S
C1172      C1173   1.411       .  A
C1173      C1174   1.415       .  A
C1174      C1175   1.508       .  S
C1175      H1179   1.111       .  S
C1175      H1180   1.111       .  S
C1175      H1181   1.109       .  S
C1178      H1182   1.109       .  S
C1178      H1183   1.111       .  S
C1178      H1184   1.111       .  S
C1185      H1192   1.085       .  S
C1185      C1190   1.395       .  A
C1186      C1187   1.411       .  A
C1187      C1194   1.505       .  S
C1188      C1189   1.411       .  A
C1189      C1190   1.424       .  A
C1190      C1191   1.512       .  S
C1191      H1195   1.111       .  S
C1191      H1196   1.110       .  S
C1191      H1197   1.108       .  S
C1194      H1198   1.110       .  S
C1194      H1199   1.110       .  S
C1194      H1200   1.111       .  S
C1201      H2600   1.083       .  S
C1201      C1202   1.413       .  A
C1201      C1206   1.404       .  A
C1202      C1203   1.421       .  A
C1203      C1204   1.408       .  A
C1203      C1210   1.508       .  S
C1204      H1209   1.084       .  S
C1204      C1205   1.405       .  A
C1205      C1206   1.409       .  A
C1206      C1207   1.508       .  S
C1207      H1211   1.111       .  S
C1207      H1212   1.110       .  S
C1207      H1213   1.110       .  S
H1208      C2593   1.083       .  S
C1210      H1214   1.110       .  S
C1210      H1215   1.108       .  S
C1210      H1216   1.111       .  S
C1217      H1224   1.084       .  S
C1217      C1218   1.399       .  A
C1217      C1222   1.403       .  A
C1218      C1219   1.406       .  A
C1219      C1220   1.398       .  A
C1219      C1226   1.507       .  S
C1220      H1225   1.084       .  S
C1220      C1221   1.405       .  A
C1221      C1222   1.417       .  A
C1222      C1223   1.508       .  S
C1223      H1227   1.111       .  S
C1223      H1228   1.109       .  S
C1223      H1229   1.110       .  S
C1226      H1230   1.110       .  S
C1226      H1231   1.110       .  S
C1226      H1232   1.109       .  S
C1233      H1240   1.084       .  S
C1233      C1234   1.410       .  A
C1233      C1238   1.406       .  A
C1234      C1235   1.415       .  A
C1235      C1236   1.412       .  A
C1235      C1242   1.506       .  S
C1236      H1241   1.084       .  S
C1236      C1237   1.408       .  A
C1237      C1238   1.412       .  A
C1238      C1239   1.508       .  S
C1239      H1243   1.111       .  S
C1239      H1244   1.109       .  S
C1239      H1245   1.110       .  S
C1242      H1246   1.111       .  S
C1242      H1247   1.109       .  S
C1242      H1248   1.111       .  S
C1249      H1256   1.084       .  S
C1249      C1250   1.401       .  A
C1249      C1254   1.410       .  A
C1250      C1251   1.411       .  A
C1251      C1252   1.407       .  A
C1251      C1258   1.506       .  S
C1252      H1257   1.084   1_565  S
C1252      C1253   1.411       .  A
C1253      C1254   1.423       .  A
C1254      C1255   1.508       .  S
C1255      H1259   1.111       .  S
C1255      H1260   1.109       .  S
C1255      H1261   1.110       .  S
C1258      H1262   1.110       .  S
C1258      H1263   1.110       .  S
C1258      H1264   1.111   1_565  S
C1265      H1272   1.084       .  S
C1265      C1266   1.410       .  A
C1265      C1270   1.410       .  A
C1266      C1267   1.419       .  A
C1267      C1268   1.406       .  A
C1267      C1274   1.509       .  S
C1268      H1273   1.084       .  S
C1268      C1269   1.405       .  A
C1269      C1270   1.416       .  A
C1270      C1271   1.509       .  S
C1271      H1275   1.111       .  S
C1271      H1276   1.110       .  S
C1271      H1277   1.109       .  S
C1274      H2670   1.109       .  S
C1274      H2671   1.110       .  S
C1274      H1280   1.111       .  S
H1278      C2666   1.109       .  S
H1279      C2666   1.110       .  S
C1281      H1288   1.083       .  S
C1281      C1282   1.414       .  A
C1281      C1286   1.406       .  A
C1282      C1283   1.418       .  A
C1283      C1284   1.405       .  A
C1283      C1290   1.508       .  S
C1284      H1289   1.084       .  S
C1284      C1285   1.409       .  A
C1285      C1286   1.413       .  A
C1286      C1287   1.508       .  S
C1287      H1291   1.111       .  S
C1287      H1292   1.110       .  S
C1287      H1293   1.110       .  S
C1290      H1294   1.108       .  S
C1290      H1295   1.110       .  S
C1290      H1296   1.111       .  S
C1297      H1304   1.084       .  S
C1297      C1298   1.409       .  A
C1297      C1302   1.406       .  A
C1298      C1299   1.426       .  A
C1299      C1300   1.408       .  A
C1299      C1306   1.505       .  S
C1300      H1305   1.084       .  S
C1300      C1301   1.398       .  A
C1301      C1302   1.410       .  A
C1303      H1307   1.111       .  S
C1303      H1308   1.110   1_565  S
C1303      H1309   1.111       .  S
C1306      H1310   1.106       .  S
C1306      H1311   1.110       .  S
C1306      H1312   1.111       .  S
C1313      H1320   1.084       .  S
C1313      C1314   1.404       .  A
C1313      C1318   1.401       .  A
C1314      C1315   1.424       .  A
C1315      C1316   1.403       .  A
C1315      C1322   1.511       .  S
C1316      H1321   1.084       .  S
C1316      C1317   1.400       .  A
C1317      C1318   1.416       .  A
C1318      C1319   1.510       .  S
C1319      H1323   1.110       .  S
C1319      H1324   1.109       .  S
C1319      H1325   1.110       .  S
C1322      H1326   1.110       .  S
C1322      H2719   1.109       .  S
C1322      H2720   1.111       .  S
H1327      C2714   1.109       .  S
H1328      C2714   1.111       .  S
C1329      H1336   1.083       .  S
C1329      C1330   1.412       .  A
C1329      C1334   1.408       .  A
C1330      C1331   1.427       .  A
C1331      C1332   1.404       .  A
C1331      C1338   1.510       .  S
C1332      H1337   1.085       .  S
C1332      C1333   1.398       .  A
C1333      C1334   1.407       .  A
C1334      C1335   1.505       .  S
C1335      H1339   1.111       .  S
C1335      H2732   1.110       .  S
C1335      H1341   1.110       .  S
C1338      H2734   1.110       .  S
C1338      H1343   1.109       .  S
C1338      H1344   1.111       .  S
H1340      C2727   1.110       .  S
H1342      C2730   1.110       .  S
C1345      H1352   1.084       .  S
C1345      C1346   1.403       .  A
C1345      C1350   1.407       .  A
C1346      C1347   1.408       .  A
C1347      C1348   1.396       .  A
C1347      C1354   1.510       .  S
C1348      H1353   1.084       .  S
C1348      C1349   1.410       .  A
C1349      C1350   1.416       .  A
C1350      C1351   1.506       .  S
C1351      H1355   1.111       .  S
C1351      H1356   1.109       .  S
C1351      H1357   1.110       .  S
C1354      H1358   1.110       .  S
C1354      H1359   1.109       .  S
C1354      H1360   1.111       .  S
C1361      H1368   1.084       .  S
C1361      C1362   1.405       .  A
C1361      C1366   1.400       .  A
C1362      C1363   1.419       .  A
C1363      C1364   1.404       .  A
C1363      C1370   1.509       .  S
C1364      H1369   1.084       .  S
C1364      C1365   1.406       .  A
C1365      C1366   1.419       .  A
C1366      C1367   1.511       .  S
C1367      H1371   1.111       .  S
C1367      H1372   1.110       .  S
C1367      H1373   1.110       .  S
C1370      H1374   1.110       .  S
C1370      H1375   1.110       .  S
C1370      H1376   1.111       .  S
C1377      H1384   1.084       .  S
C1377      C1378   1.398       .  A
C1377      C1382   1.400       .  A
C1379      C1380   1.401       .  A
C1379      C1386   1.509       .  S
C1380      H1385   1.084       .  S
C1380      C1381   1.406       .  A
C1382      C2775   1.508       .  S
C1383      C2774   1.508       .  S
C1383      H1387   1.111       .  S
C1383      H1388   1.110       .  S
C1386      H1391   1.109       .  S
C1386      H1392   1.111       .  S
C1393      N1394   1.359       .  A
C1393      N2094   1.358       .  A
C1393      C2074   1.473       .  S
N1394      C1395   1.354       .  A
C1395      N1396   1.355       .  A
C1395      C1450   1.453       .  S
N1396      C2093   1.353       .  A
C1397      N2092   1.353   1_545  A
C1397      N1398   1.356       .  A
C1397      C2061   1.487       .  S
N1398      C2089   1.358   1_545  A
C1399      N1400   1.354       .  A
C1399      N1404   1.358       .  A
C1399      C2042   1.468       .  S
N1400      C1401   1.355       .  A
C1401      N1402   1.355       .  A
C1401      C2058   1.489       .  S
N1402      C1403   1.358       .  A
C1403      N1404   1.358       .  A
C1403      C1439   1.455       .  S
C1405      N1410   1.361   1_455  A
C1405      C2029   1.477       .  S
N1406      C1407   1.362       .  A
C1407      C1436   1.462       .  S
N1408      C1409   1.346       .  A
C1409      N1410   1.358       .  A
C1409      C2010   1.486       .  S
C1411      N2108   1.369       .  A
C1411      N1416   1.360   1_565  A
C1411      C1997   1.478   1_565  S
N1412      C2107   1.369       .  A
N1412      C1413   1.366       .  A
C1413      N2110   1.351       .  A
C1413      C1442   1.466       .  S
N1414      C2109   1.351       .  A
N1414      C1415   1.345   1_565  A
C1415      N1416   1.355       .  A
C1415      C2013   1.477       .  S
C1417      N1418   1.362       .  A
C1417      C1978   1.500       .  S
N1418      C1419   1.365       .  A
C1419      C1962   1.497       .  S
N1420      C1421   1.359       .  A
C1421      N1422   1.354       .  A
C1421      C1432   1.471       .  S
C1423      N1424   1.359       .  A
C1423      N1428   1.358       .  A
C1423      C1946   1.482       .  S
N1424      C1425   1.363       .  A
C1425      N1426   1.361       .  A
C1425      C1443   1.476       .  S
N1426      C1427   1.361       .  A
C1427      N1428   1.361       .  A
C1427      C1965   1.490       .  S
O1429     Ni1435   1.920       .  S
O1429      C1450   1.271       .  A
O1430     Ni1453   1.913       .  S
O1430      C1439   1.271       .  A
O1431     Ni1435   1.875       .  S
O1431     Ni1453   1.893       .  S
O1431     Ni1447   1.910       .  S
O1431      H1454   0.966       .  S
C1432      O1449   1.281       .  A
C1432      O1441   1.277       .  A
O1433     Ni1452   1.918       .  S
O1433      C1439   1.270       .  A
O1434     Ni1452   1.897       .  S
O1434      C1436   1.269       .  A
Ni1435     O1438   1.922       .  S
Ni1435     O1440   1.898       .  S
C1436      O1446   1.272       .  A
O1437     Ni1453   1.939       .  S
O1437      C1443   1.284       .  A
O1438      C1443   1.278       .  A
O1440      C1442   1.269       .  A
O1441     Ni1452   1.910       .  S
C1442      O1448   1.271       .  A
H1444      O1445   0.966       .  S
O1445     Ni1453   1.911       .  S
O1445     Ni1447   1.895       .  S
O1445     Ni1452   1.874       .  S
O1446     Ni1447   1.935       .  S
Ni1447     O1451   1.910       .  S
Ni1447     O1449   1.940       .  S
O1448     Ni1453   1.937       .  S
C1450      O1451   1.270       .  A
O1455     Ni1461   1.934       .  S
O1455      C1476   1.272       .  A
O1456     Ni1479   1.887       .  S
O1456      C1465   1.264       .  A
O1457     Ni1461   1.925       .  S
O1457     Ni1479   1.891       .  S
O1457     Ni1473   1.918       .  S
O1457      H1480   0.966       .  S
C1458      C1994   1.501       .  S
C1458      O1475   1.269       .  A
C1458      O1467   1.280       .  A
O1459     Ni1478   1.950       .  S
O1459      C1465   1.277       .  A
O1460     Ni1478   1.924       .  S
O1460      C1462   1.273       .  A
Ni1461     O1464   1.928       .  S
Ni1461     O1466   1.918       .  S
C1462      C1981   1.490       .  S
C1462      O1472   1.269       .  A
O1463     Ni1479   1.898       .  S
O1463      C1469   1.265       .  A
O1464      C1469   1.269       .  A
C1465      C1901   1.483       .  S
O1466      C1468   1.278       .  A
O1467     Ni1478   1.954       .  S
C1468      C1933   1.488       .  S
C1468      O1474   1.281       .  A
C1469      C1917   1.474       .  S
H1470      O1471   0.965       .  S
O1471     Ni1479   1.913       .  S
O1471     Ni1473   1.899       .  S
O1471     Ni1478   1.928       .  S
O1472     Ni1473   1.922       .  S
Ni1473     O1477   1.876       .  S
Ni1473     O1475   1.910       .  S
O1474     Ni1479   1.948       .  S
C1476      C2045   1.484       .  S
C1476      O1477   1.262       .  A
C1481      N1482   1.356       .  A
C1481      N1486   1.363       .  A
C1481      C1882   1.477       .  S
N1482      C1483   1.350   1_565  A
C1483      N1484   1.362       .  A
C1483      C1866   1.500       .  S
N1484      C1485   1.371       .  A
C1485      N1486   1.364   1_545  A
C1485      C1524   1.486       .  S
C1487      N1488   1.359       .  A
C1487      N1492   1.371       .  A
C1487      C1930   1.496       .  S
N1488      C1489   1.353       .  A
C1489      N1490   1.362       .  A
C1489      C1869   1.498       .  S
N1490      C1491   1.368       .  A
C1491      N1492   1.369       .  A
C1491      C1530   1.497       .  S
C1493      N1494   1.355       .  A
C1493      N1498   1.360       .  A
C1493      C1850   1.466       .  S
N1494      C1495   1.353       .  A
C1495      N1496   1.356       .  A
C1495      C1837   1.481       .  S
N1496      C1497   1.356       .  A
C1497      N1498   1.361       .  A
C1497      C1531   1.460       .  S
C1499      N1500   1.355       .  A
C1499      N1504   1.353       .  A
C1499      C1914   1.460       .  S
N1500      C1501   1.357       .  A
C1501      N1502   1.361       .  A
C1501      C1520   1.462       .  S
N1502      C1503   1.361       .  A
C1503      N1504   1.353       .  A
C1503      C1834   1.485       .  S
C1505      N1506   1.362       .  A
C1505      N1510   1.360       .  A
C1505      C1821   1.498       .  S
N1506      C1507   1.365       .  A
C1507      N1508   1.366       .  A
C1507      C1802   1.503       .  S
N1508      C1509   1.362       .  A
C1509      N1510   1.356       .  A
C1509      C1538   1.473       .  S
C1511      N1512   1.361       .  A
C1511      C1898   1.502       .  S
C1513      N1514   1.366       .  A
N1514      C1515   1.363       .  A
C1515      N1516   1.353       .  A
O1517      C1538   1.273   1_455  A
O1518     Ni1541   1.913       .  S
O1519     Ni2231   1.909   1_545  S
O1519      H1542   0.966       .  S
C1520      O1537   1.272       .  A
C1520      O1529   1.275       .  A
O1521     Ni1540   1.925       .  S
O1521      C1527   1.272       .  A
O1522     Ni1540   1.900       .  S
O1522      C1524   1.269       .  A
Ni1523     O1526   1.924       .  S
Ni1523     O1528   1.919       .  S
C1524      O1534   1.286   1_545  A
O1525     Ni1541   1.919       .  S
O1525      C1531   1.276       .  A
O1526      C1531   1.276       .  A
O1528      C1530   1.273       .  A
O1529     Ni2236   1.926       .  S
C1530      O1536   1.282       .  A
H1532      O1533   0.966       .  S
O1533     Ni2231   1.910   1_545  S
O1533     Ni1540   1.895       .  S
O1534     Ni2231   1.966       .  S
Ni1535     O2230   1.967       .  S
Ni1535     O1539   1.924       .  S
Ni1535     O1537   1.914       .  S
Ni1535     O2215   1.910       .  S
Ni1535     O2229   1.910       .  S
O1536     Ni1541   1.962       .  S
C1538      O1539   1.277       .  A
Ni1540     O2225   1.925   1_545  S
C1543      N1544   1.367       .  A
C1543      N1548   1.352       .  A
C1543      C1789   1.485       .  S
N1544      C1545   1.367       .  A
C1545      N1546   1.361       .  A
C1545      C1600   1.468       .  S
N1546      C1547   1.355       .  A
C1547      N1548   1.349       .  A
C1547      C1773   1.480       .  S
C1549      N1550   1.357       .  A
C1549      N1554   1.365       .  A
C1549      C1757   1.478       .  S
N1550      C1551   1.354       .  A
C1551      N1552   1.355       .  A
C1551      C1770   1.484       .  S
N1552      C1553   1.358       .  A
C1553      N1554   1.361       .  A
C1553      C1589   1.468       .  S
C1555      N1556   1.372       .  A
C1555      N2256   1.360       .  A
C1555      C1738   1.482       .  S
N1556      C1557   1.368       .  A
C1557      N1558   1.352       .  A
C1557      C1586   1.472       .  S
N1558      C1559   1.345       .  A
C1559      N2256   1.353       .  A
C1559      C2418   1.475       .  S
N1560      C2251   1.361       .  A
N1560      C2255   1.355       .  A
C1561      N1566   1.366       .  A
C1561      C1709   1.473       .  S
C1563      N1564   1.347       .  A
N1564      C1565   1.353       .  A
C1565      N1566   1.364       .  A
C1565      C1592   1.464       .  S
C1567      N1568   1.355       .  A
C1567      N1572   1.360       .  A
C1567      C1693   1.480       .  S
N1568      C1569   1.358       .  A
C1569      N1570   1.360       .  A
C1569      C1582   1.473       .  S
N1570      C1571   1.365       .  A
C1571      N1572   1.362       .  A
C1571      C1674   1.497       .  S
C1573      N1574   1.352   1_455  A
N1574      C1575   1.356       .  A
C1575      N1576   1.363       .  A
C1575      C1593   1.471       .  S
N1576      C1577   1.366   1_655  A
O1579     Ni1585   1.922       .  S
O1579      C1600   1.270       .  A
O1580     Ni1603   1.926       .  S
O1580      C1589   1.273       .  A
O1581     Ni1585   1.882       .  S
O1581     Ni1603   1.909       .  S
O1581     Ni1597   1.914       .  S
O1581      H1604   0.966       .  S
C1582      O1599   1.283       .  A
C1582      O1591   1.277       .  A
O1583     Ni1602   1.924       .  S
O1583      C1589   1.271       .  A
O1584     Ni1602   1.899       .  S
O1584      C1586   1.270       .  A
Ni1585     O1588   1.913       .  S
Ni1585     O1590   1.898       .  S
C1586      O1596   1.274       .  A
O1587     Ni1603   1.934       .  S
O1587      C1593   1.279       .  A
O1588      C1593   1.277       .  A
O1590      C1592   1.269       .  A
O1591     Ni1602   1.916       .  S
C1592      O1598   1.273       .  A
H1594      O1595   0.966       .  S
O1595     Ni1603   1.905       .  S
O1595     Ni1597   1.904       .  S
O1595     Ni1602   1.877       .  S
O1596     Ni1597   1.945       .  S
Ni1597     O1601   1.927       .  S
Ni1597     O1599   1.940       .  S
O1598     Ni1603   1.938       .  S
C1600      O1601   1.274       .  A
O1605     Ni1611   1.947   1_454  S
O1605      C1626   1.276       .  A
O1606     Ni2325   1.897       .  S
O1606      C1615   1.267       .  A
O1607     Ni1611   1.929       .  S
O1607     Ni1629   1.908       .  S
O1607     Ni1623   1.915   1_656  S
O1607      H1630   0.967   1_556  S
C1608      C2077   1.486       .  S
C1608      O1625   1.268   1_565  A
C1608      O2313   1.273       .  A
O1609     Ni1628   1.940       .  S
O1609      C1615   1.273       .  A
O1610     Ni1628   1.914   1_554  S
O1610      C1612   1.271       .  A
Ni1611     O1614   1.945       .  S
C1612      C1949   1.499       .  S
C1612      O1622   1.276       .  A
O1613     Ni1629   1.896       .  S
O1613      C1619   1.266       .  A
O1614      C1619   1.274       .  A
C1615      C1706   1.497       .  S
O1616      C1618   1.275       .  A
O1617      C2304   1.273       .  A
C1618      C1690   1.488       .  S
C1618      O1624   1.277       .  A
C1619      C1754   1.487       .  S
O1621     Ni1629   1.899   1_455  S
O1621     Ni1623   1.899   1_556  S
O1621     Ni2324   1.923   1_445  S
O1622     Ni2319   1.941   1_655  S
Ni1623     O2318   1.940   1_455  S
Ni1623     O1627   1.891       .  S
C1626      C2026   1.503       .  S
C1626      O1627   1.262       .  A
Ni1628     O2317   1.922   1_655  S
Ni1629     O2302   1.898   1_545  S
O1631     Ni1637   1.941       .  S
O1631      C1652   1.275       .  A
O1632     Ni1655   1.883       .  S
O1632      C1641   1.268       .  A
O1633     Ni1637   1.923       .  S
O1633     Ni1655   1.903       .  S
O1633     Ni1649   1.922       .  S
O1633      H1656   0.966       .  S
C1634      C1853   1.483       .  S
C1634      O1651   1.265       .  A
C1634      O1643   1.273       .  A
O1635     Ni1654   1.940       .  S
O1635      C1641   1.274       .  A
O1636     Ni1654   1.916       .  S
O1636      C1638   1.276       .  A
Ni1637     O1640   1.946       .  S
Ni1637     O1642   1.924       .  S
C1638      C1885   1.493       .  S
C1638      O1648   1.276       .  A
O1639     Ni1655   1.918       .  S
O1639      C1645   1.271       .  A
O1640      C1645   1.275       .  A
C1641      C1786   1.495       .  S
O1642      C1644   1.276       .  A
O1643     Ni1654   1.941       .  S
C1644      C1661   1.488       .  S
C1644      O1650   1.273       .  A
C1645      C1741   1.497       .  S
H1646      O1647   0.966       .  S
O1647     Ni1655   1.915       .  S
O1647     Ni1649   1.889       .  S
O1647     Ni1654   1.921       .  S
O1648     Ni1649   1.932       .  S
Ni1649     O1653   1.901       .  S
Ni1649     O1651   1.899       .  S
O1650     Ni1655   1.924       .  S
C1652      C1818   1.486       .  S
C1652      O1653   1.265       .  A
C1657      H1664   1.084   1_455  S
C1658      C1659   1.412       .  A
C1659      C1660   1.398       .  A
C1659      C1666   1.508       .  S
C1660      H1665   1.084       .  S
C1660      C1661   1.408       .  A
C1661      C1662   1.416       .  A
C1662      C1663   1.507       .  S
C1663      H1668   1.111       .  S
C1663      H1669   1.110       .  S
C1666      H1670   1.110       .  S
C1666      H1671   1.108       .  S
C1666      H1672   1.108       .  S
C1673      H1680   1.084       .  S
C1673      C1674   1.407       .  A
C1673      C1678   1.406       .  A
C1674      C1675   1.421       .  A
C1675      C1676   1.408       .  A
C1675      C1682   1.506       .  S
C1676      C1677   1.404       .  A
C1677      C1678   1.416       .  A
C1678      C1679   1.508       .  S
C1679      H1683   1.111       .  S
C1679      H1684   1.109       .  S
C1679      H1685   1.110       .  S
C1682      H1686   1.110       .  S
C1682      H1687   1.109       .  S
C1689      H1696   1.084       .  S
C1689      C1690   1.407       .  A
C1689      C1694   1.406       .  A
C1690      C1691   1.419       .  A
C1691      C1692   1.406       .  A
C1691      C1698   1.508       .  S
C1692      H1697   1.084       .  S
C1692      C1693   1.402       .  A
C1693      C1694   1.411       .  A
C1694      C1695   1.505       .  S
C1695      H1699   1.111       .  S
C1695      H1700   1.106       .  S
C1695      H1701   1.110       .  S
C1698      H1702   1.108       .  S
C1698      H1703   1.110       .  S
C1698      H1704   1.111       .  S
C1705      H1712   1.084       .  S
C1705      C1706   1.409       .  A
C1705      C1710   1.401       .  A
C1706      C1707   1.425       .  A
C1707      C1708   1.408       .  A
C1707      C1714   1.508       .  S
C1708      H1713   1.084       .  S
C1708      C1709   1.398       .  A
C1709      C1710   1.410       .  A
C1710      C1711   1.509       .  S
C1711      H1715   1.111       .  S
C1711      H1716   1.110       .  S
C1711      H1717   1.109       .  S
C1714      H1719   1.110       .  S
C1714      H1720   1.111       .  S
C1721      H1728   1.084       .  S
C1721      C1722   1.401       .  A
C1721      C1726   1.402       .  A
C1722      C2255   1.477       .  S
C1722      C1723   1.418       .  A
C1723      C1724   1.400       .  A
C1723      C2426   1.511       .  S
C1724      H1729   1.084       .  S
C1724      C1725   1.403       .  A
C1725      C1726   1.419       .  A
C1726      C1727   1.509       .  S
C1727      H1731   1.109       .  S
C1727      H1733   1.111       .  S
C1730      C2419   1.510       .  S
C1730      H1734   1.110       .  S
C1730      H1735   1.109       .  S
C1730      H1736   1.111       .  S
C1737      H1744   1.084       .  S
C1737      C2434   1.402       .  A
C1737      C1742   1.408       .  A
C1738      C2433   1.402       .  A
C1738      C1739   1.411       .  A
C1739      C2436   1.410       .  A
C1739      C1746   1.506       .  S
C1740      H1745   1.084       .  S
C1740      C2435   1.409       .  A
C1740      C1741   1.409       .  A
C1741      C1742   1.421       .  A
C1742      C1743   1.509       .  S
C1743      H1747   1.111       .  S
C1743      H1748   1.108       .  S
C1743      H1749   1.110       .  S
C1746      H1750   1.111       .  S
C1746      H1751   1.110       .  S
C1746      H1752   1.111       .  S
C1753      H1760   1.084       .  S
C1753      C1754   1.405       .  A
C1753      C1758   1.402       .  A
C1754      C1755   1.421       .  A
C1755      C1756   1.405       .  A
C1755      C1762   1.507       .  S
C1756      H1761   1.084       .  S
C1756      C1757   1.399       .  A
C1757      C1758   1.416       .  A
C1758      C1759   1.509       .  S
C1759      H1763   1.111   1_545  S
C1759      H1764   1.109   1_545  S
C1759      H1765   1.110       .  S
C1762      H2462   1.109       .  S
C1762      H1767   1.109       .  S
C1762      H1768   1.111       .  S
H1766      C2458   1.109       .  S
C1769      H1776   1.084       .  S
C1769      C2466   1.408       .  A
C1769      C1774   1.406       .  A
C1770      C2465   1.408   1_545  A
C1770      C1771   1.417   1_545  A
C1771      C1772   1.401       .  A
C1771      C1778   1.510   1_565  S
C1772      H1777   1.083       .  S
C1772      C2469   1.404       .  A
C1773      C2468   1.403       .  A
C1773      C1774   1.413       .  A
C1774      C1775   1.508       .  S
C1775      H1779   1.110       .  S
C1775      H1780   1.110       .  S
C1775      H1781   1.110       .  S
C1778      H1782   1.110       .  S
C1778      H1783   1.110       .  S
C1778      H1784   1.111   1_545  S
C1785      H1792   1.084       .  S
C1785      C1786   1.407       .  A
C1785      C1790   1.395       .  A
C1786      C1787   1.421       .  A
C1787      C1788   1.412       .  A
C1787      C1794   1.507       .  S
C1788      H1793   1.084       .  S
C1788      C1789   1.405       .  A
C1789      C1790   1.417       .  A
C1790      C1791   1.510       .  S
C1791      H1795   1.110       .  S
C1791      H1796   1.107       .  S
C1791      H1797   1.111       .  S
C1794      H1798   1.111       .  S
C1794      H1799   1.109       .  S
C1794      H1800   1.111       .  S
C1801      H1808   1.084       .  S
C1801      C1802   1.410   1_455  A
C1801      C1806   1.413       .  A
C1802      C1803   1.418       .  A
C1803      C1804   1.409       .  A
C1803      C1810   1.509       .  S
C1804      H1809   1.083       .  S
C1804      C1805   1.409       .  A
C1805      C1806   1.419   1_655  A
C1807      H1812   1.110       .  S
C1810      H1814   1.109       .  S
C1810      H1815   1.110       .  S
C1810      H1816   1.111       .  S
C1817      H1824   1.084       .  S
C1817      C1818   1.406       .  A
C1817      C1822   1.412       .  A
C1819      C1820   1.403       .  A
C1819      C1826   1.508       .  S
C1820      H1825   1.083       .  S
C1820      C1821   1.408   1_455  A
C1822      C1823   1.507       .  S
C1823      H1827   1.111       .  S
C1823      H1828   1.108       .  S
C1823      H1829   1.111       .  S
C1826      H1831   1.109       .  S
C1826      H1832   1.111       .  S
C1833      H1840   1.084       .  S
C1833      C1834   1.406       .  A
C1833      C1838   1.404       .  A
C1834      C1835   1.418       .  A
C1835      C1836   1.402       .  A
C1835      C1842   1.510       .  S
C1836      H1841   1.084       .  S
C1836      C1837   1.404       .  A
C1837      C1838   1.416       .  A
C1838      C1839   1.509       .  S
C1839      H1843   1.111       .  S
C1839      H1844   1.109       .  S
C1839      H1845   1.111       .  S
C1842      H1846   1.110       .  S
C1842      H1847   1.109       .  S
C1842      H1848   1.111       .  S
C1849      H1856   1.084       .  S
C1849      C1850   1.400       .  A
C1849      C1854   1.404       .  A
C1850      C1851   1.407       .  A
C1851      C1852   1.401       .  A
C1851      C1858   1.507       .  S
C1852      H1857   1.084       .  S
C1852      C1853   1.409       .  A
C1853      C1854   1.417       .  A
C1854      C1855   1.508       .  S
C1855      H1859   1.111       .  S
C1855      H1860   1.110       .  S
C1855      H1861   1.109       .  S
C1858      H1862   1.110       .  S
C1858      H1863   1.111       .  S
C1858      H1864   1.110       .  S
C1865      H1872   1.084   1_545  S
C1865      C1866   1.410       .  A
C1865      C1870   1.409       .  A
C1866      C1867   1.415       .  A
C1867      C1868   1.413       .  A
C1867      C1874   1.507       .  S
C1868      H1873   1.084       .  S
C1868      C1869   1.411       .  A
C1869      C1870   1.415       .  A
C1870      C1871   1.508   1_545  S
C1871      H1875   1.111       .  S
C1871      H1876   1.111       .  S
C1871      H1877   1.109       .  S
C1874      H1878   1.109       .  S
C1874      H1879   1.111       .  S
C1874      H1880   1.111       .  S
C1881      H1888   1.085       .  S
C1881      C2578   1.398       .  A
C1881      C1886   1.394       .  A
C1882      C2577   1.398       .  A
C1882      C1883   1.411       .  A
C1883      C2580   1.411       .  A
C1883      C1890   1.505   1_565  S
C1884      H2585   1.084       .  S
C1884      C2579   1.412       .  A
C1884      C1885   1.411       .  A
C1885      C1886   1.425       .  A
C1886      C1887   1.511       .  S
C1887      H1891   1.111       .  S
C1887      H1892   1.110       .  S
C1887      H1893   1.107       .  S
H1889      C2580   1.084       .  S
C1890      H1894   1.110       .  S
C1890      H1895   1.110   1_545  S
C1890      H1896   1.111       .  S
C1897      C1898   1.414       .  A
C1897      C1902   1.404       .  A
C1898      C1899   1.421       .  A
C1899      C1900   1.408       .  A
C1899      C1906   1.508       .  S
C1900      H1905   1.084       .  S
C1900      C1901   1.405       .  A
C1901      C1902   1.409       .  A
C1902      C1903   1.508       .  S
C1903      H1907   1.111       .  S
C1903      H1908   1.110       .  S
C1903      H1909   1.110       .  S
C1906      H1910   1.110       .  S
C1906      H1911   1.108       .  S
C1906      H1912   1.111       .  S
C1913      H1920   1.084       .  S
C1913      C1914   1.399       .  A
C1913      C1918   1.403       .  A
C1914      C1915   1.406       .  A
C1915      C1916   1.398       .  A
C1915      C1922   1.507       .  S
C1916      H1921   1.084       .  S
C1916      C1917   1.405       .  A
C1917      C1918   1.417       .  A
C1918      C1919   1.508       .  S
C1919      H1923   1.111       .  S
C1919      H1924   1.109       .  S
C1919      H1925   1.110       .  S
C1922      H1926   1.110       .  S
C1922      H1927   1.110       .  S
C1922      H1928   1.110       .  S
C1929      H1936   1.084       .  S
C1929      C1930   1.409       .  A
C1929      C1934   1.405       .  A
C1930      C1931   1.416       .  A
C1931      C1932   1.413       .  A
C1931      C1938   1.506       .  S
C1932      H1937   1.084       .  S
C1932      C1933   1.408       .  A
C1933      C1934   1.412       .  A
C1934      C1935   1.508       .  S
C1935      H1939   1.111       .  S
C1935      H1940   1.109       .  S
C1935      H1941   1.110       .  S
C1938      H1942   1.111       .  S
C1938      H1943   1.109       .  S
C1938      H1944   1.111       .  S
C1945      H1952   1.084       .  S
C1945      C1946   1.401       .  A
C1945      C1950   1.409       .  A
C1946      C1947   1.410       .  A
C1947      C1948   1.406       .  A
C1947      C1954   1.506       .  S
C1948      H1953   1.084       .  S
C1948      C1949   1.410       .  A
C1949      C1950   1.423       .  A
C1950      C1951   1.509       .  S
C1951      H1955   1.111       .  S
C1951      H1956   1.109       .  S
C1951      H1957   1.110       .  S
C1954      H1958   1.110       .  S
C1954      H1959   1.110       .  S
C1954      H1960   1.111       .  S
C1961      H1968   1.084       .  S
C1961      C1962   1.410       .  A
C1961      C1966   1.410       .  A
C1962      C1963   1.419       .  A
C1963      C1964   1.405       .  A
C1963      C1970   1.509       .  S
C1964      H1969   1.084       .  S
C1964      C1965   1.405       .  A
C1965      C1966   1.416       .  A
C1966      C1967   1.509       .  S
C1967      H1971   1.111       .  S
C1967      H1972   1.110       .  S
C1967      H1973   1.109       .  S
C1970      H1976   1.111       .  S
C1977      H1984   1.083       .  S
C1977      C1978   1.414       .  A
C1977      C1982   1.406       .  A
C1978      C1979   1.418       .  A
C1979      C1980   1.404       .  A
C1979      C1986   1.508       .  S
C1980      H1985   1.084       .  S
C1980      C1981   1.409       .  A
C1981      C1982   1.412       .  A
C1982      C1983   1.508       .  S
C1983      H1987   1.111       .  S
C1983      H1988   1.110       .  S
C1983      H1989   1.110       .  S
C1986      H1990   1.108       .  S
C1986      H1991   1.110       .  S
C1986      H1992   1.111       .  S
C1993      H2000   1.084       .  S
C1993      C1994   1.409       .  A
C1993      C1998   1.407       .  A
C1994      C1995   1.425       .  A
C1995      C1996   1.408       .  A
C1995      C2002   1.505       .  S
C1996      H2001   1.085       .  S
C1996      C1997   1.398       .  A
C1997      C1998   1.410       .  A
C1998      C2695   1.507   1_545  S
C1999      C2694   1.507       .  S
C1999      H2003   1.111       .  S
C1999      H2004   1.110       .  S
C1999      H2005   1.111       .  S
C2002      H2006   1.106       .  S
C2002      H2007   1.110       .  S
C2002      H2008   1.111       .  S
C2009      H2016   1.084       .  S
C2009      C2010   1.403       .  A
C2009      C2014   1.401       .  A
C2010      C2011   1.424       .  A
C2011      C2012   1.403       .  A
C2011      C2018   1.511       .  S
C2012      H2017   1.084       .  S
C2012      C2013   1.400       .  A
C2013      C2014   1.417       .  A
C2014      C2015   1.510       .  S
C2015      H2019   1.110       .  S
C2015      H2020   1.109   1_545  S
C2015      H2021   1.110   1_545  S
C2018      H2022   1.110       .  S
C2025      H2032   1.083       .  S
C2025      C2026   1.412       .  A
C2025      C2030   1.409       .  A
C2026      C2027   1.428       .  A
C2027      C2028   1.404       .  A
C2027      C2034   1.510       .  S
C2028      H2033   1.085       .  S
C2028      C2029   1.398       .  A
C2029      C2030   1.408       .  A
C2030      C2031   1.505       .  S
C2031      H2035   1.111       .  S
C2031      H2037   1.110   1_455  S
C2034      H2039   1.110       .  S
C2034      H2040   1.111       .  S
C2041      H2048   1.084       .  S
C2041      C2042   1.403       .  A
C2041      C2046   1.407       .  A
C2042      C2043   1.408       .  A
C2043      C2044   1.396       .  A
C2043      C2050   1.510       .  S
C2044      H2049   1.084       .  S
C2044      C2045   1.410       .  A
C2045      C2046   1.415       .  A
C2046      C2047   1.506       .  S
C2047      H2051   1.111       .  S
C2047      H2052   1.109       .  S
C2047      H2053   1.110       .  S
C2050      H2054   1.110       .  S
C2050      H2055   1.109       .  S
C2050      H2056   1.111       .  S
C2057      H2064   1.083       .  S
C2057      C2058   1.405       .  A
C2057      C2062   1.400       .  A
C2058      C2059   1.419       .  A
C2059      C2060   1.405       .  A
C2059      C2066   1.509       .  S
C2060      H2065   1.084       .  S
C2060      C2061   1.406       .  A
C2061      C2062   1.419       .  A
C2062      C2063   1.511       .  S
C2063      H2067   1.111       .  S
C2063      H2068   1.110       .  S
C2063      H2069   1.110       .  S
C2066      H2070   1.110       .  S
C2066      H2071   1.110       .  S
C2066      H2072   1.111       .  S
C2073      H2080   1.084       .  S
C2073      C2074   1.399       .  A
C2073      C2078   1.400       .  A
C2074      C2771   1.414       .  A
C2075      C2770   1.414   1_545  A
C2075      C2076   1.401       .  A
C2075      C2082   1.509       .  S
C2076      H2081   1.084       .  S
C2076      C2077   1.406   1_545  A
C2077      C2774   1.422       .  A
C2078      C2773   1.422       .  A
C2079      H2083   1.111   1_455  S
C2079      H2084   1.110       .  S
C2079      H2781   1.109   1_455  S
C2082      H2782   1.110       .  S
C2082      H2087   1.109       .  S
C2082      H2088   1.111       .  S
H2085      C2775   1.109   1_655  S
H2086      C2778   1.110       .  S
C2089      N2090   1.360       .  A
C2089      C2770   1.474       .  S
N2090      C2091   1.354       .  A
C2091      N2092   1.354       .  A
C2091      C2146   1.453       .  S
C2093      N2094   1.356       .  A
C2093      C2757   1.487       .  S
C2095      N2096   1.354       .  A
C2095      N2100   1.359       .  A
C2095      C2738   1.468       .  S
N2096      C2097   1.355       .  A
C2097      N2098   1.355       .  A
C2097      C2754   1.488       .  S
N2098      C2099   1.358       .  A
C2099      N2100   1.358       .  A
C2099      C2135   1.455       .  S
C2101      N2106   1.361   1_455  A
C2101      C2725   1.476       .  S
N2102      C2103   1.362       .  A
C2103      C2132   1.462       .  S
N2104      C2105   1.346       .  A
C2105      N2106   1.358       .  A
C2105      C2706   1.487       .  S
C2107      N2112   1.360       .  A
C2107      C2693   1.478       .  S
N2108      C2109   1.366       .  A
C2109      C2138   1.466       .  S
N2110      C2111   1.346       .  A
C2111      N2112   1.355       .  A
C2111      C2709   1.478       .  S
C2113      N2114   1.362       .  A
C2113      C2674   1.500       .  S
N2114      C2115   1.365       .  A
C2115      C2658   1.497       .  S
N2116      C2117   1.359       .  A
C2117      N2118   1.354       .  A
C2117      C2128   1.471       .  S
C2119      N2120   1.359       .  A
C2119      N2124   1.358       .  A
C2119      C2642   1.483       .  S
N2120      C2121   1.363       .  A
C2121      N2122   1.361       .  A
C2121      C2139   1.476       .  S
N2122      C2123   1.361       .  A
C2123      N2124   1.362       .  A
C2123      C2661   1.490       .  S
O2125     Ni2131   1.919       .  S
O2125      C2146   1.271       .  A
O2126     Ni2149   1.914       .  S
O2126      C2135   1.271       .  A
O2127     Ni2131   1.876       .  S
O2127     Ni2149   1.894       .  S
O2127     Ni2143   1.911       .  S
O2127      H2150   0.966       .  S
C2128      O2145   1.281       .  A
C2128      O2137   1.277       .  A
O2129     Ni2148   1.918       .  S
O2129      C2135   1.270       .  A
O2130     Ni2148   1.898       .  S
O2130      C2132   1.269       .  A
Ni2131     O2134   1.921       .  S
Ni2131     O2136   1.898       .  S
C2132      O2142   1.272       .  A
O2133     Ni2149   1.940       .  S
O2133      C2139   1.284       .  A
O2134      C2139   1.278       .  A
O2136      C2138   1.269       .  A
O2137     Ni2148   1.910       .  S
C2138      O2144   1.271       .  A
H2140      O2141   0.966       .  S
O2141     Ni2149   1.911       .  S
O2141     Ni2143   1.895       .  S
O2141     Ni2148   1.874       .  S
O2142     Ni2143   1.934       .  S
Ni2143     O2147   1.911       .  S
Ni2143     O2145   1.941       .  S
O2144     Ni2149   1.936       .  S
C2146      O2147   1.270       .  A
O2151     Ni2157   1.934       .  S
O2151      C2172   1.272       .  A
O2152     Ni2175   1.887       .  S
O2152      C2161   1.264       .  A
O2153     Ni2157   1.925       .  S
O2153     Ni2175   1.892       .  S
O2153     Ni2169   1.917       .  S
O2153      H2176   0.966       .  S
C2154      C2690   1.501       .  S
C2154      O2171   1.269       .  A
C2154      O2163   1.280       .  A
O2155     Ni2174   1.950       .  S
O2155      C2161   1.277       .  A
O2156     Ni2174   1.924       .  S
O2156      C2158   1.273       .  A
Ni2157     O2160   1.927       .  S
Ni2157     O2162   1.918       .  S
C2158      C2677   1.491       .  S
C2158      O2168   1.269       .  A
O2159     Ni2175   1.898       .  S
O2159      C2165   1.265       .  A
O2160      C2165   1.269       .  A
C2161      C2597   1.483       .  S
O2162      C2164   1.278       .  A
O2163     Ni2174   1.954       .  S
C2164      C2629   1.488       .  S
C2164      O2170   1.281       .  A
C2165      C2613   1.473       .  S
H2166      O2167   0.965       .  S
O2167     Ni2175   1.913       .  S
O2167     Ni2169   1.900       .  S
O2167     Ni2174   1.929       .  S
O2168     Ni2169   1.922       .  S
Ni2169     O2173   1.876       .  S
Ni2169     O2171   1.909       .  S
O2170     Ni2175   1.948       .  S
C2172      C2741   1.484       .  S
C2172      O2173   1.262       .  A
C2177      N2178   1.356       .  A
C2177      N2182   1.364       .  A
C2177      C2578   1.479       .  S
N2178      C2179   1.350       .  A
C2179      N2180   1.362       .  A
C2179      C2562   1.500       .  S
N2180      C2181   1.372       .  A
C2181      N2182   1.364       .  A
C2181      C2220   1.487       .  S
C2183      N2184   1.359       .  A
C2183      N2188   1.371       .  A
C2183      C2626   1.496       .  S
N2184      C2185   1.353       .  A
C2185      N2186   1.362       .  A
C2185      C2565   1.499       .  S
N2186      C2187   1.368       .  A
C2187      N2188   1.369       .  A
C2187      C2226   1.498       .  S
C2189      N2190   1.354       .  A
C2189      N2194   1.360       .  A
C2189      C2546   1.466       .  S
N2190      C2191   1.352       .  A
C2191      N2192   1.357       .  A
C2191      C2533   1.482       .  S
N2192      C2193   1.357       .  A
C2193      N2194   1.361       .  A
C2193      C2227   1.461       .  S
C2195      N2196   1.355       .  A
C2195      N2200   1.353       .  A
C2195      C2610   1.459       .  S
N2196      C2197   1.357       .  A
C2197      N2198   1.362       .  A
C2197      C2216   1.462       .  S
N2198      C2199   1.361       .  A
C2199      N2200   1.353       .  A
C2199      C2530   1.486       .  S
C2201      N2202   1.362       .  A
C2201      N2206   1.360       .  A
C2201      C2517   1.498       .  S
N2202      C2203   1.365       .  A
C2203      N2204   1.366       .  A
C2203      C2498   1.502       .  S
N2204      C2205   1.362       .  A
C2205      N2206   1.357       .  A
C2205      C2234   1.473       .  S
C2207      N2208   1.361       .  A
C2207      C2594   1.502       .  S
C2209      N2210   1.366       .  A
N2210      C2211   1.363       .  A
C2211      N2212   1.353       .  A
O2213      C2234   1.273   1_455  A
O2214     Ni2237   1.913       .  S
O2215      H2238   0.966       .  S
C2216      O2233   1.272       .  A
C2216      O2225   1.275       .  A
O2217     Ni2236   1.925       .  S
O2217      C2223   1.272       .  A
O2218     Ni2236   1.900       .  S
O2218      C2220   1.269       .  A
Ni2219     O2222   1.925       .  S
Ni2219     O2224   1.919       .  S
C2220      O2230   1.286       .  A
O2221     Ni2237   1.921       .  S
O2221      C2227   1.276       .  A
O2222      C2227   1.276       .  A
O2224      C2226   1.273       .  A
C2226      O2232   1.282       .  A
H2228      O2229   0.966       .  S
O2229     Ni2236   1.895       .  S
Ni2231     O2235   1.924       .  S
Ni2231     O2233   1.914       .  S
O2232     Ni2237   1.963       .  S
C2234      O2235   1.277       .  A
C2239      N2240   1.366       .  A
C2239      N2244   1.351       .  A
C2239      C2485   1.486       .  S
N2240      C2241   1.366       .  A
C2241      N2242   1.362       .  A
C2241      C2296   1.469       .  S
N2242      C2243   1.356       .  A
C2243      N2244   1.349       .  A
C2243      C2469   1.480       .  S
C2245      N2246   1.357       .  A
C2245      N2250   1.365       .  A
C2245      C2453   1.478       .  S
N2246      C2247   1.354       .  A
C2247      N2248   1.355       .  A
C2247      C2466   1.485       .  S
N2248      C2249   1.358       .  A
C2249      N2250   1.361       .  A
C2249      C2285   1.469       .  S
C2251      N2252   1.372       .  A
C2251      C2434   1.482       .  S
N2252      C2253   1.368       .  A
C2253      N2254   1.351       .  A
C2253      C2282   1.471       .  S
N2254      C2255   1.344       .  A
C2257      N2262   1.366       .  A
C2257      C2405   1.473       .  S
C2259      N2260   1.347       .  A
N2260      C2261   1.353       .  A
C2261      N2262   1.364       .  A
C2261      C2288   1.463       .  S
C2263      N2264   1.355       .  A
C2263      N2268   1.360       .  A
C2263      C2389   1.480       .  S
N2264      C2265   1.358       .  A
C2265      N2266   1.361       .  A
C2265      C2278   1.473       .  S
N2266      C2267   1.365       .  A
C2267      N2268   1.362       .  A
C2267      C2370   1.495       .  S
C2269      N2270   1.352   1_455  A
N2270      C2271   1.355       .  A
C2271      N2272   1.363       .  A
C2271      C2289   1.470       .  S
N2272      C2273   1.365   1_655  A
O2275     Ni2281   1.923       .  S
O2275      C2296   1.270       .  A
O2276     Ni2299   1.926       .  S
O2276      C2285   1.273       .  A
O2277     Ni2281   1.883       .  S
O2277     Ni2299   1.910       .  S
O2277     Ni2293   1.915       .  S
O2277      H2300   0.966       .  S
C2278      O2295   1.283       .  A
C2278      O2287   1.277       .  A
O2279     Ni2298   1.925       .  S
O2279      C2285   1.271       .  A
O2280     Ni2298   1.897       .  S
O2280      C2282   1.270       .  A
Ni2281     O2284   1.916       .  S
Ni2281     O2286   1.897       .  S
C2282      O2292   1.274       .  A
O2283     Ni2299   1.930       .  S
O2283      C2289   1.277       .  A
O2284      C2289   1.277       .  A
O2286      C2288   1.269       .  A
O2287     Ni2298   1.916       .  S
C2288      O2294   1.273       .  A
H2290      O2291   0.966       .  S
O2291     Ni2299   1.904       .  S
O2291     Ni2293   1.905       .  S
O2291     Ni2298   1.877       .  S
O2292     Ni2293   1.945       .  S
Ni2293     O2297   1.927       .  S
Ni2293     O2295   1.940       .  S
O2294     Ni2299   1.939       .  S
C2296      O2297   1.274       .  A
O2301     Ni2307   1.946   1_454  S
O2301      C2322   1.276       .  A
O2302      C2311   1.268       .  A
O2303     Ni2307   1.929       .  S
O2303     Ni2325   1.907       .  S
O2303     Ni2319   1.915   1_656  S
O2303      H2326   0.967   1_556  S
C2304      C2773   1.486       .  S
C2304      O2321   1.268       .  A
O2305     Ni2324   1.940       .  S
O2305      C2311   1.273       .  A
O2306     Ni2324   1.916   1_554  S
O2306      C2308   1.272       .  A
Ni2307     O2310   1.944       .  S
C2308      C2645   1.499       .  S
C2308      O2318   1.276   1_565  A
O2309     Ni2325   1.897       .  S
O2309      C2315   1.266       .  A
O2310      C2315   1.274       .  A
C2311      C2402   1.498       .  S
O2312      C2314   1.275       .  A
C2314      C2386   1.488       .  S
C2314      O2320   1.277       .  A
C2315      C2450   1.488       .  S
O2317     Ni2325   1.900   1_455  S
O2317     Ni2319   1.899   1_556  S
Ni2319     O2323   1.890       .  S
C2322      C2722   1.502       .  S
C2322      O2323   1.262       .  A
O2327     Ni2333   1.941       .  S
O2327      C2348   1.275       .  A
O2328     Ni2351   1.882       .  S
O2328      C2337   1.267       .  A
O2329     Ni2333   1.923       .  S
O2329     Ni2351   1.903       .  S
O2329     Ni2345   1.923       .  S
O2329      H2352   0.966       .  S
C2330      C2549   1.485       .  S
C2330      O2347   1.266       .  A
C2330      O2339   1.273       .  A
O2331     Ni2350   1.939       .  S
O2331      C2337   1.274       .  A
O2332     Ni2350   1.915       .  S
O2332      C2334   1.276       .  A
Ni2333     O2336   1.946       .  S
Ni2333     O2338   1.925       .  S
C2334      C2581   1.491       .  S
C2334      O2344   1.276       .  A
O2335     Ni2351   1.918       .  S
O2335      C2341   1.271       .  A
O2336      C2341   1.275       .  A
C2337      C2482   1.495       .  S
O2338      C2340   1.276       .  A
O2339     Ni2350   1.940       .  S
C2340      C2357   1.494       .  S
C2340      O2346   1.273       .  A
C2341      C2437   1.498   1_565  S
H2342      O2343   0.966       .  S
O2343     Ni2351   1.914       .  S
O2343     Ni2345   1.890       .  S
O2343     Ni2350   1.920       .  S
O2344     Ni2345   1.932       .  S
Ni2345     O2349   1.904       .  S
Ni2345     O2347   1.899       .  S
O2346     Ni2351   1.923       .  S
C2348      C2514   1.487       .  S
C2348      O2349   1.266       .  A
C2353      H2360   1.084   1_455  S
C2354      C2355   1.413       .  A
C2355      C2356   1.398       .  A
C2355      C2362   1.510       .  S
C2356      H2361   1.084       .  S
C2356      C2357   1.411       .  A
C2357      C2358   1.417       .  A
C2358      C2359   1.507       .  S
C2359      H2364   1.111       .  S
C2359      H2365   1.110       .  S
C2362      H2366   1.110       .  S
C2362      H2367   1.110       .  S
C2362      H2368   1.110       .  S
C2369      H2376   1.084       .  S
C2369      C2370   1.406       .  A
C2369      C2374   1.406       .  A
C2370      C2371   1.420       .  A
C2371      C2372   1.408       .  A
C2371      C2378   1.506       .  S
C2372      C2373   1.404       .  A
C2373      C2374   1.416       .  A
C2374      C2375   1.508       .  S
C2375      H2379   1.111       .  S
C2375      H2380   1.109       .  S
C2375      H2381   1.110       .  S
C2378      H2382   1.110       .  S
C2378      H2383   1.109       .  S
C2385      H2392   1.084       .  S
C2385      C2386   1.407       .  A
C2385      C2390   1.406       .  A
C2386      C2387   1.419       .  A
C2387      C2388   1.406       .  A
C2387      C2394   1.508       .  S
C2388      H2393   1.084       .  S
C2388      C2389   1.402       .  A
C2389      C2390   1.411       .  A
C2390      C2391   1.505       .  S
C2391      H2395   1.111       .  S
C2391      H2396   1.106       .  S
C2391      H2397   1.110       .  S
C2394      H2398   1.108       .  S
C2394      H2399   1.110       .  S
C2394      H2400   1.111       .  S
C2401      H2408   1.084       .  S
C2401      C2402   1.409       .  A
C2401      C2406   1.402       .  A
C2402      C2403   1.425       .  A
C2403      C2404   1.409       .  A
C2403      C2410   1.507       .  S
C2404      H2409   1.084       .  S
C2404      C2405   1.398       .  A
C2405      C2406   1.410       .  A
C2406      C2407   1.509       .  S
C2407      H2411   1.111       .  S
C2407      H2412   1.110       .  S
C2407      H2413   1.109       .  S
C2410      H2415   1.110       .  S
C2410      H2416   1.111       .  S
C2417      H2424   1.084       .  S
C2417      C2418   1.401   1_565  A
C2417      C2422   1.402       .  A
C2418      C2419   1.417       .  A
C2419      C2420   1.399   1_545  A
C2420      H2425   1.084       .  S
C2420      C2421   1.403       .  A
C2421      C2422   1.420       .  A
C2422      C2423   1.510       .  S
C2423      H2427   1.111       .  S
C2423      H2429   1.111       .  S
C2426      H2430   1.110       .  S
C2426      H2431   1.110       .  S
C2426      H2432   1.111       .  S
C2433      H2440   1.084       .  S
C2433      C2438   1.408       .  A
C2434      C2435   1.411       .  A
C2435      C2442   1.506       .  S
C2436      H2441   1.084       .  S
C2436      C2437   1.410       .  A
C2437      C2438   1.421       .  A
C2438      C2439   1.509       .  S
C2439      H2443   1.111       .  S
C2439      H2444   1.108       .  S
C2439      H2445   1.110       .  S
C2442      H2446   1.111       .  S
C2442      H2447   1.110       .  S
C2442      H2448   1.111       .  S
C2449      H2456   1.084       .  S
C2449      C2450   1.405       .  A
C2449      C2454   1.403       .  A
C2450      C2451   1.421       .  A
C2451      C2452   1.405       .  A
C2451      C2458   1.507       .  S
C2452      H2457   1.084       .  S
C2452      C2453   1.399       .  A
C2453      C2454   1.416       .  A
C2454      C2455   1.509       .  S
C2455      H2459   1.111       .  S
C2455      H2460   1.109       .  S
C2455      H2461   1.110       .  S
C2458      H2463   1.109       .  S
C2458      H2464   1.111       .  S
C2465      H2472   1.084       .  S
C2465      C2470   1.405       .  A
C2466      C2467   1.417       .  A
C2467      C2468   1.400       .  A
C2467      C2474   1.510       .  S
C2468      H2473   1.082       .  S
C2469      C2470   1.413       .  A
C2470      C2471   1.507       .  S
C2471      H2475   1.110       .  S
C2471      H2476   1.111       .  S
C2471      H2477   1.110       .  S
C2474      H2478   1.110       .  S
C2474      H2479   1.110       .  S
C2474      H2480   1.111       .  S
C2481      H2488   1.084       .  S
C2481      C2482   1.407       .  A
C2481      C2486   1.395       .  A
C2482      C2483   1.422       .  A
C2483      C2484   1.411       .  A
C2483      C2490   1.507       .  S
C2484      H2489   1.084       .  S
C2484      C2485   1.404       .  A
C2485      C2486   1.418       .  A
C2486      C2487   1.511       .  S
C2487      H2491   1.111       .  S
C2487      H2492   1.108       .  S
C2487      H2493   1.110       .  S
C2490      H2494   1.111       .  S
C2490      H2495   1.109       .  S
C2490      H2496   1.111       .  S
C2497      H2504   1.084   1_655  S
C2497      C2498   1.410       .  A
C2497      C2502   1.413   1_655  A
C2498      C2499   1.418       .  A
C2499      C2500   1.409       .  A
C2499      C2506   1.509       .  S
C2500      H2505   1.084       .  S
C2500      C2501   1.409       .  A
C2501      C2502   1.419   1_655  A
C2503      H2508   1.110       .  S
C2506      H2510   1.109       .  S
C2506      H2511   1.110       .  S
C2506      H2512   1.111       .  S
C2513      H2520   1.084       .  S
C2513      C2514   1.406       .  A
C2513      C2518   1.413       .  A
C2515      C2516   1.404       .  A
C2515      C2522   1.508       .  S
C2516      H2521   1.083       .  S
C2516      C2517   1.408   1_455  A
C2518      C2519   1.507       .  S
C2519      H2523   1.111       .  S
C2519      H2524   1.108       .  S
C2519      H2525   1.111       .  S
C2522      H2527   1.109       .  S
C2522      H2528   1.111       .  S
C2529      H2536   1.084       .  S
C2529      C2530   1.406       .  A
C2529      C2534   1.404       .  A
C2530      C2531   1.419       .  A
C2531      C2532   1.402       .  A
C2531      C2538   1.510       .  S
C2532      H2537   1.084       .  S
C2532      C2533   1.404       .  A
C2533      C2534   1.416       .  A
C2534      C2535   1.510       .  S
C2535      H2539   1.111       .  S
C2535      H2540   1.109       .  S
C2535      H2541   1.111       .  S
C2538      H2542   1.110       .  S
C2538      H2543   1.109       .  S
C2538      H2544   1.111       .  S
C2545      H2552   1.085       .  S
C2545      C2546   1.400       .  A
C2545      C2550   1.403       .  A
C2546      C2547   1.407       .  A
C2547      C2548   1.402       .  A
C2547      C2554   1.507       .  S
C2548      H2553   1.084       .  S
C2548      C2549   1.410       .  A
C2549      C2550   1.418       .  A
C2550      C2551   1.508       .  S
C2551      H2555   1.111       .  S
C2551      H2556   1.110       .  S
C2551      H2557   1.109       .  S
C2554      H2558   1.110       .  S
C2554      H2559   1.111       .  S
C2554      H2560   1.110       .  S
C2561      H2568   1.084       .  S
C2561      C2562   1.410       .  A
C2561      C2566   1.409       .  A
C2562      C2563   1.416       .  A
C2563      C2564   1.413       .  A
C2563      C2570   1.507       .  S
C2564      H2569   1.084       .  S
C2564      C2565   1.411       .  A
C2565      C2566   1.415       .  A
C2566      C2567   1.508       .  S
C2567      H2571   1.111       .  S
C2567      H2572   1.111       .  S
C2567      H2573   1.109       .  S
C2570      H2574   1.109       .  S
C2570      H2575   1.111       .  S
C2570      H2576   1.111       .  S
C2577      H2584   1.085       .  S
C2577      C2582   1.394       .  A
C2578      C2579   1.411       .  A
C2579      C2586   1.505       .  S
C2580      C2581   1.411       .  A
C2581      C2582   1.424       .  A
C2582      C2583   1.511       .  S
C2583      H2587   1.111       .  S
C2583      H2588   1.109       .  S
C2583      H2589   1.107       .  S
C2586      H2590   1.110       .  S
C2586      H2591   1.110       .  S
C2586      H2592   1.111       .  S
C2593      C2594   1.413       .  A
C2593      C2598   1.404       .  A
C2594      C2595   1.421       .  A
C2595      C2596   1.408       .  A
C2595      C2602   1.508       .  S
C2596      H2601   1.084       .  S
C2596      C2597   1.405       .  A
C2597      C2598   1.409       .  A
C2598      C2599   1.508       .  S
C2599      H2603   1.111       .  S
C2599      H2604   1.110       .  S
C2599      H2605   1.110       .  S
C2602      H2606   1.110       .  S
C2602      H2607   1.108       .  S
C2602      H2608   1.111       .  S
C2609      H2616   1.084       .  S
C2609      C2610   1.399       .  A
C2609      C2614   1.402       .  A
C2610      C2611   1.406       .  A
C2611      C2612   1.398       .  A
C2611      C2618   1.507       .  S
C2612      H2617   1.084       .  S
C2612      C2613   1.405       .  A
C2613      C2614   1.417       .  A
C2614      C2615   1.508       .  S
C2615      H2619   1.111       .  S
C2615      H2620   1.109       .  S
C2615      H2621   1.110       .  S
C2618      H2622   1.110       .  S
C2618      H2623   1.110       .  S
C2618      H2624   1.109       .  S
C2625      H2632   1.084       .  S
C2625      C2626   1.409       .  A
C2625      C2630   1.405       .  A
C2626      C2627   1.416       .  A
C2627      C2628   1.413       .  A
C2627      C2634   1.506       .  S
C2628      H2633   1.084       .  S
C2628      C2629   1.408       .  A
C2629      C2630   1.412       .  A
C2630      C2631   1.508       .  S
C2631      H2635   1.111       .  S
C2631      H2636   1.109       .  S
C2631      H2637   1.110       .  S
C2634      H2638   1.111       .  S
C2634      H2639   1.109       .  S
C2634      H2640   1.111       .  S
C2641      H2648   1.084       .  S
C2641      C2642   1.401       .  A
C2641      C2646   1.410       .  A
C2642      C2643   1.410       .  A
C2643      C2644   1.407       .  A
C2643      C2650   1.506       .  S
C2644      H2649   1.084   1_565  S
C2644      C2645   1.411       .  A
C2645      C2646   1.423       .  A
C2646      C2647   1.508       .  S
C2647      H2651   1.111       .  S
C2647      H2652   1.109       .  S
C2647      H2653   1.110       .  S
C2650      H2654   1.110       .  S
C2650      H2655   1.110       .  S
C2650      H2656   1.111   1_565  S
C2657      H2664   1.084       .  S
C2657      C2658   1.410       .  A
C2657      C2662   1.410       .  A
C2658      C2659   1.419       .  A
C2659      C2660   1.405       .  A
C2659      C2666   1.509       .  S
C2660      H2665   1.084       .  S
C2660      C2661   1.404       .  A
C2661      C2662   1.416       .  A
C2662      C2663   1.509       .  S
C2663      H2667   1.111       .  S
C2663      H2668   1.110       .  S
C2663      H2669   1.109       .  S
C2666      H2672   1.111       .  S
C2673      H2680   1.083       .  S
C2673      C2674   1.414       .  A
C2673      C2678   1.406       .  A
C2674      C2675   1.418       .  A
C2675      C2676   1.404       .  A
C2675      C2682   1.508       .  S
C2676      H2681   1.084       .  S
C2676      C2677   1.409       .  A
C2677      C2678   1.412       .  A
C2678      C2679   1.508       .  S
C2679      H2683   1.111       .  S
C2679      H2684   1.110       .  S
C2679      H2685   1.110       .  S
C2682      H2686   1.108       .  S
C2682      H2687   1.110       .  S
C2682      H2688   1.111       .  S
C2689      H2696   1.084       .  S
C2689      C2690   1.409       .  A
C2689      C2694   1.407       .  A
C2690      C2691   1.426       .  A
C2691      C2692   1.408       .  A
C2691      C2698   1.505       .  S
C2692      H2697   1.085       .  S
C2692      C2693   1.398       .  A
C2693      C2694   1.410       .  A
C2695      H2699   1.111       .  S
C2695      H2700   1.110   1_565  S
C2695      H2701   1.111       .  S
C2698      H2702   1.106       .  S
C2698      H2703   1.110       .  S
C2698      H2704   1.111       .  S
C2705      H2712   1.084       .  S
C2705      C2706   1.404       .  A
C2705      C2710   1.401       .  A
C2706      C2707   1.424       .  A
C2707      C2708   1.403       .  A
C2707      C2714   1.511       .  S
C2708      H2713   1.084       .  S
C2708      C2709   1.400       .  A
C2709      C2710   1.417       .  A
C2710      C2711   1.510       .  S
C2711      H2715   1.110       .  S
C2711      H2716   1.109       .  S
C2711      H2717   1.110       .  S
C2714      H2718   1.110       .  S
C2721      H2728   1.083       .  S
C2721      C2722   1.412       .  A
C2721      C2726   1.408       .  A
C2722      C2723   1.427       .  A
C2723      C2724   1.404       .  A
C2723      C2730   1.511       .  S
C2724      H2729   1.085       .  S
C2724      C2725   1.398       .  A
C2725      C2726   1.407       .  A
C2726      C2727   1.505       .  S
C2727      H2731   1.111       .  S
C2727      H2733   1.110   1_455  S
C2730      H2735   1.110       .  S
C2730      H2736   1.111       .  S
C2737      H2744   1.084       .  S
C2737      C2738   1.403       .  A
C2737      C2742   1.407       .  A
C2738      C2739   1.408       .  A
C2739      C2740   1.396       .  A
C2739      C2746   1.510       .  S
C2740      H2745   1.084       .  S
C2740      C2741   1.410       .  A
C2741      C2742   1.416       .  A
C2742      C2743   1.506       .  S
C2743      H2747   1.111       .  S
C2743      H2748   1.109       .  S
C2743      H2749   1.110       .  S
C2746      H2750   1.110       .  S
C2746      H2751   1.109       .  S
C2746      H2752   1.111       .  S
C2753      H2760   1.083       .  S
C2753      C2754   1.405       .  A
C2753      C2758   1.400       .  A
C2754      C2755   1.419       .  A
C2755      C2756   1.404       .  A
C2755      C2762   1.509       .  S
C2756      H2761   1.084       .  S
C2756      C2757   1.406       .  A
C2757      C2758   1.419       .  A
C2758      C2759   1.511       .  S
C2759      H2763   1.111       .  S
C2759      H2764   1.110       .  S
C2759      H2765   1.110       .  S
C2762      H2766   1.110       .  S
C2762      H2767   1.110       .  S
C2762      H2768   1.111       .  S
C2769      H2776   1.084       .  S
C2769      C2770   1.399       .  A
C2769      C2774   1.400       .  A
C2771      C2772   1.400       .  A
C2771      C2778   1.509       .  S
C2772      H2777   1.084       .  S
C2772      C2773   1.406       .  A
C2775      H2779   1.111   1_455  S
C2775      H2780   1.110       .  S
C2778      H2783   1.109       .  S
C2778      H2784   1.111       .  S
