geometry optimzed in LAMMPS
_audit_creation_date              2020-11-30 
_audit_creation_method            'lammps2cif' 
_symmetry_space_group_name_H-M    'P1' 
_symmetry_Int_Tables_number       1 
_symmetry_cell_setting            triclinic 
loop_ 
_symmetry_equiv_pos_as_xyz 
  x,y,z 
_cell_length_a                    45.7131982 
_cell_length_b                    36.64030130754093 
_cell_length_c                    40.319163320349745 
_cell_angle_alpha                 89.38665524238807 
_cell_angle_beta                  90.00726348498743 
_cell_angle_gamma                 90.33354520794512 
loop_ 
_atom_site_label 
_atom_site_type_symbol 
_atom_site_fract_x 
_atom_site_fract_y 
_atom_site_fract_z 
_atom_site_charge 
In1        In  0.08634252  0.79809680  0.35389970     1.36900
C2          C  0.14395258  0.80557364  0.35314742     0.77300
O3          O  0.09218504  0.73923049  0.34148633    -0.61100
O4          O  0.07302232  0.77372413  0.30505906    -0.52000
C5          C  0.05513341  0.78080448  0.40718056     0.70000
O6          O  0.08262329  0.78316367  0.40724779    -0.46900
C7          C  0.07078587  0.86790873  0.34929187     0.74700
O8          O  0.13009978  0.79175825  0.37723733    -0.58800
O9          O  0.06375536  0.84523839  0.32719086    -0.48900
O10         O  0.12820609  0.81552209  0.32905052    -0.55200
C11         C  0.08260573  0.74235974  0.31232652     0.84900
O12         O  0.04341503  0.78529232  0.37903611    -0.57100
O13         O  0.08528548  0.85453209  0.37294549    -0.60400
In14       In  0.41867964  0.79932515  0.36154296     1.36900
C15         C  0.36233782  0.81461580  0.36155937     0.77300
O16         O  0.43638506  0.84571445  0.32870680    -0.61100
O17         O  0.42962198  0.85459822  0.37990990    -0.52000
C18         C  0.44772934  0.77686191  0.41536649     0.70000
O19         O  0.42033584  0.78062057  0.41480242    -0.46900
C20         C  0.41982544  0.74147489  0.32156580     0.74700
O21         O  0.37539438  0.80181278  0.38666513    -0.58800
O22         O  0.43923868  0.76618741  0.32071502    -0.48900
O23         O  0.37840702  0.82032994  0.33657929    -0.55200
C24         C  0.43703285  0.86811726  0.35232516     0.84900
O25         O  0.46015384  0.78332363  0.38792379    -0.57100
O26         O  0.40041594  0.74617132  0.34318652    -0.60400
C27         C  0.09628030  0.50660425  0.09703243     0.86200
C28         C  0.09178900  0.53952082  0.11949853    -0.54000
C29         C  0.10960789  0.54110095  0.14659950     0.09100
C30         C  0.13071247  0.50836585  0.14895456     0.20100
C31         C  0.12947147  0.50821587  0.08819231    -0.54700
C32         C  0.14775516  0.50929150  0.11559087     0.09200
C33         C  0.09357729  0.47325925  0.11996668    -0.54300
C34         C  0.11113952  0.47390216  0.14717897     0.09800
H35         H  0.07495106  0.55956553  0.11436796     0.14300
H36         H  0.14494387  0.50836816  0.17119306     0.00100
H37         H  0.13778458  0.50912600  0.06303248     0.14600
H38         H  0.07810896  0.45122279  0.11546390     0.14400
C39         C  0.42352255  0.50458832  0.10579085     0.86200
C40         C  0.42465776  0.47050298  0.12803009    -0.54000
C41         C  0.40562441  0.47035291  0.15400035     0.09100
C42         C  0.38654622  0.50482254  0.15541988     0.20100
C43         C  0.39084744  0.50669648  0.09483422    -0.54700
C44         C  0.37123774  0.50715970  0.12104282     0.09200
C45         C  0.42713377  0.53683137  0.12946848    -0.54300
C46         C  0.40861108  0.53686952  0.15607254     0.09800
H47         H  0.44040435  0.44886537  0.12417687     0.14300
H48         H  0.37118422  0.50403915  0.17664076     0.00100
H49         H  0.38383352  0.50847162  0.06919487     0.14600
H50         H  0.44365553  0.55775120  0.12527277     0.14400
In51       In  0.07980186  0.21196555  0.35337861     1.36900
C52         C  0.13765979  0.20828304  0.35593860     0.77300
O53         O  0.08247536  0.15480783  0.37178135    -0.61100
O54         O  0.05695436  0.16400468  0.32857258    -0.52000
C55         C  0.04784825  0.22946425  0.40594002     0.70000
O56         O  0.07535685  0.23177813  0.40503803    -0.46900
C57         C  0.07613235  0.26722482  0.30961713     0.74700
O58         O  0.12237927  0.21954990  0.37967472    -0.58800
O59         O  0.07397398  0.23428115  0.30104513    -0.48900
O60         O  0.12325841  0.19914325  0.33070211    -0.55200
C61         C  0.06692147  0.14109198  0.34932540     0.84900
O62         O  0.03618990  0.21897199  0.37915006    -0.57100
O63         O  0.07765927  0.27156896  0.34047425    -0.60400
In64       In  0.41435586  0.20822095  0.36196680     1.36900
C65         C  0.35661907  0.19890085  0.36215996     0.77300
O66         O  0.40628362  0.26694689  0.34935902    -0.61100
O67         O  0.43099814  0.23577809  0.31548212    -0.52000
C68         C  0.44352583  0.22849107  0.41583157     0.70000
O69         O  0.41634210  0.22272766  0.41547536    -0.46900
C70         C  0.43324723  0.13998447  0.35314881     0.74700
O71         O  0.37109043  0.20741135  0.38746864    -0.58800
O72         O  0.42476174  0.15230849  0.38048600    -0.48900
O73         O  0.37185413  0.19399331  0.33659040    -0.55200
C74         C  0.41926560  0.26599125  0.32186239     0.84900
O75         O  0.45593681  0.22503817  0.38799970    -0.57100
O76         O  0.43284823  0.16304030  0.32971118    -0.60400
In77       In  0.91497729  0.20910827  0.67772473     1.36900
C78         C  0.85784021  0.19654917  0.67718544     0.77300
O79         O  0.92905077  0.15598486  0.65677494    -0.61100
O80         O  0.93074938  0.16069623  0.70898291    -0.52000
C81         C  0.94139261  0.23146279  0.62221623     0.70000
O82         O  0.91515631  0.22083803  0.62343825    -0.46900
C83         C  0.91801014  0.26593637  0.71887274     0.74700
O84         O  0.87099570  0.21492950  0.65513477    -0.58800
O85         O  0.93693249  0.24085386  0.71922284    -0.48900
O86         O  0.87414992  0.18385622  0.69973022    -0.55200
C87         C  0.93400118  0.14038579  0.68410549     0.84900
O88         O  0.95419691  0.23202474  0.65002806    -0.57100
O89         O  0.89834432  0.26186472  0.69743474    -0.60400
In90       In  0.58142678  0.20900232  0.68503294     1.36900
C91         C  0.63901892  0.19973547  0.68289477     0.77300
O92         O  0.58357927  0.26835780  0.69809952    -0.61100
O93         O  0.57362002  0.23127227  0.73697309    -0.52000
C94         C  0.55111343  0.22868980  0.63166309     0.70000
O95         O  0.57858232  0.22612342  0.63225509    -0.46900
C96         C  0.56449022  0.13900174  0.68661847     0.74700
O97         O  0.62530249  0.21952176  0.66254160    -0.58800
O98         O  0.55754144  0.16077013  0.70950382    -0.48900
O99         O  0.62328157  0.18524997  0.70510590    -0.55200
C100        C  0.57882300  0.26402181  0.72860585     0.84900
O101        O  0.53873405  0.22253158  0.65928046    -0.57100
O102        O  0.57880559  0.15364545  0.66332098    -0.60400
In103      In  0.58386106  0.79494714  0.68470027     1.36900
C104        C  0.64163241  0.80231625  0.68547723     0.77300
O105        O  0.58239529  0.85159281  0.66403474    -0.61100
O106        O  0.56022883  0.84247547  0.70941615    -0.52000
C107        C  0.55510773  0.77452487  0.63067032     0.70000
O108        O  0.58248098  0.77799762  0.63206152    -0.46900
C109        C  0.57967893  0.73880283  0.72776129     0.74700
O110        O  0.62768253  0.78951199  0.66131098    -0.58800
O111        O  0.57071649  0.77042619  0.73458860    -0.48900
O112        O  0.62589506  0.81175561  0.70956721    -0.55200
C113        C  0.56751295  0.86518154  0.68699767     0.84900
O114        O  0.54202130  0.78031720  0.65775183    -0.57100
O115        O  0.58898054  0.73579743  0.69856336    -0.60400
In116      In  0.91854399  0.79714306  0.67862413     1.36900
C117        C  0.86087016  0.80237340  0.68160352     0.77300
O118        O  0.91264852  0.73804617  0.69179919    -0.61100
O119        O  0.93806153  0.77057550  0.72418508    -0.52000
C120        C  0.94732584  0.78189100  0.62357435     0.70000
O121        O  0.91987106  0.78418774  0.62507399    -0.46900
C122        C  0.93274019  0.86758742  0.68422082     0.74700
O123        O  0.87418105  0.79033046  0.65672581    -0.58800
O124        O  0.93497696  0.84561847  0.70845240    -0.48900
O125        O  0.87719266  0.81185627  0.70520525    -0.55200
C126        C  0.92650598  0.73980744  0.71870486     0.84900
O127        O  0.96036194  0.78586233  0.65101405    -0.57100
O128        O  0.92398489  0.85319926  0.65781874    -0.60400
C129        C  0.59660735  0.49940905  0.94317579     0.86200
C130        C  0.59285427  0.46680060  0.92004760    -0.54000
C131        C  0.61057046  0.46703978  0.89285813     0.09100
C132        C  0.63127140  0.50057748  0.89132073     0.20100
C133        C  0.62978409  0.49908086  0.95213789    -0.54700
C134        C  0.64814632  0.49928600  0.92480977     0.09200
C135        C  0.59334121  0.53309028  0.92083779    -0.54300
C136        C  0.61117898  0.53438930  0.89375666     0.09800
H137        H  0.57660276  0.44556950  0.92455039     0.14300
H138        H  0.64574286  0.50116289  0.86923360     0.00100
H139        H  0.63807342  0.49761670  0.97729806     0.14600
H140        H  0.57718617  0.55393041  0.92586885     0.14400
C141        C  0.92356248  0.50210813  0.93445816     0.86200
C142        C  0.92455352  0.53678938  0.91309387    -0.54000
C143        C  0.90534746  0.53755487  0.88726601     0.09100
C144        C  0.88630706  0.50273270  0.88505570     0.20100
C145        C  0.89101383  0.49916034  0.94559208    -0.54700
C146        C  0.87130745  0.49914695  0.91953104     0.09200
C147        C  0.92711224  0.47069095  0.91004042    -0.54300
C148        C  0.90847218  0.47108194  0.88354743     0.09800
H149        H  0.94035837  0.55846120  0.91747142     0.14300
H150        H  0.87066849  0.50368014  0.86407848     0.00100
H151        H  0.88407700  0.49662586  0.97121861     0.14600
H152        H  0.94361634  0.44988908  0.91377517     0.14400
C153        C  0.68109624  0.49626350  0.92637989    -0.01600
C154        C  0.69578840  0.47444183  0.90339283    -0.09600
C155        C  0.72644213  0.47224283  0.90286095    -0.18400
C156        C  0.74400427  0.49231626  0.92522782     0.04000
C157        C  0.72921883  0.51393470  0.94902238     0.18200
C158        C  0.69814312  0.51551333  0.94958209    -0.19800
C159        C  0.74561862  0.53424945  0.97181191    -0.21100
C160        C  0.77620356  0.53391164  0.97132098    -0.19600
C161        C  0.79151132  0.51339501  0.94791336     0.19600
C162        C  0.77559738  0.49216195  0.92457947     0.01700
C163        C  0.79207313  0.47226126  0.90126646    -0.14400
C164        C  0.82273101  0.47418057  0.90054817    -0.12100
C165        C  0.83852361  0.49555877  0.92308589     0.01200
C166        C  0.82260481  0.51460023  0.94723845    -0.24300
H167        H  0.68342731  0.45863777  0.88562022     0.09200
H168        H  0.73577288  0.45474134  0.88439572     0.12800
H169        H  0.68725993  0.53258599  0.96750808     0.11500
H170        H  0.73468404  0.55081329  0.99008496     0.12700
H171        H  0.78799697  0.55022737  0.98922171     0.11700
H172        H  0.78186618  0.45527053  0.88288558     0.08800
H173        H  0.83419367  0.45857849  0.88209908     0.12100
H174        H  0.83435303  0.53144598  0.96477596     0.13900
C175        C  0.92719469  0.70903933  0.74270101    -0.01600
C176        C  0.93621112  0.71487342  0.77537245    -0.09600
C177        C  0.93257742  0.68771100  0.79958211    -0.18400
C178        C  0.91985090  0.65358410  0.79173213     0.04000
C179        C  0.91287931  0.64677015  0.75802820     0.18200
C180        C  0.91617438  0.67459311  0.73400089    -0.19800
C181        C  0.90235581  0.61239809  0.74865752    -0.21100
C182        C  0.89871717  0.58456231  0.77211726    -0.19600
C183        C  0.90430586  0.59089003  0.80571687     0.19600
C184        C  0.91411676  0.62587676  0.81606133     0.01700
C185        C  0.91717174  0.63190192  0.85039387    -0.14400
C186        C  0.91265769  0.60370375  0.87328448    -0.12100
C187        C  0.90533271  0.56837571  0.86290033     0.01200
C188        C  0.90039143  0.56240735  0.82906156    -0.24300
H189        H  0.94515300  0.74106170  0.78257189     0.09200
H190        H  0.94001488  0.69418063  0.82421111     0.12800
H191        H  0.90959160  0.66963934  0.70859659     0.11500
H192        H  0.89721311  0.60688144  0.72294807     0.12700
H193        H  0.89104581  0.55807756  0.76399472     0.11700
H194        H  0.92270031  0.65824219  0.86035511     0.08800
H195        H  0.91537010  0.60958309  0.89936993     0.12100
H196        H  0.89450535  0.53534669  0.82066171     0.13900
C197        C  0.58097298  0.70818244  0.75217387    -0.01600
C198        C  0.57453448  0.71387867  0.78565410    -0.09600
C199        C  0.57939650  0.68643624  0.80941212    -0.18400
C200        C  0.59101688  0.65217102  0.80039490     0.04000
C201        C  0.59587476  0.64577554  0.76615392     0.18200
C202        C  0.59102224  0.67369897  0.74254203    -0.19800
C203        C  0.60598356  0.61172662  0.75574376    -0.21100
C204        C  0.61149739  0.58386203  0.77864706    -0.19600
C205        C  0.60773219  0.58954824  0.81266473     0.19600
C206        C  0.59789866  0.62402045  0.82402634     0.01700
C207        C  0.59595191  0.62903947  0.85860217    -0.14400
C208        C  0.60184383  0.60052519  0.88077514    -0.12100
C209        C  0.60960831  0.56569261  0.86957911     0.01200
C210        C  0.61347323  0.56086531  0.83539205    -0.24300
H211        H  0.56644952  0.74006207  0.79370728     0.09200
H212        H  0.57392806  0.69291609  0.83466173     0.12800
H213        H  0.59575759  0.66879086  0.71662379     0.11500
H214        H  0.60957357  0.60655536  0.72964696     0.12700
H215        H  0.61903127  0.55776382  0.76969212     0.11700
H216        H  0.59008174  0.65478764  0.86933951     0.08800
H217        H  0.59996535  0.60586014  0.90704334     0.12100
H218        H  0.62007684  0.53457256  0.82625576     0.13900
C219        C  0.82881328  0.80486881  0.68282438    -0.01600
C220        C  0.81473285  0.81853502  0.71082127    -0.09600
C221        C  0.78426880  0.82016339  0.71212744    -0.18400
C222        C  0.76694589  0.80793587  0.68530837     0.04000
C223        C  0.78155267  0.79449370  0.65682771     0.18200
C224        C  0.81212095  0.79316487  0.65584917    -0.19800
C225        C  0.76561770  0.78208558  0.62954100    -0.21100
C226        C  0.73529365  0.78224355  0.63001481    -0.19600
C227        C  0.72022364  0.79480718  0.65779131     0.19600
C228        C  0.73573526  0.80810254  0.68579389     0.01700
C229        C  0.71926756  0.82050815  0.71313761    -0.14400
C230        C  0.68874929  0.81903838  0.71285849    -0.12100
C231        C  0.67375314  0.80536346  0.68539538     0.01200
C232        C  0.68961394  0.79367490  0.65782900    -0.24300
H233        H  0.82731065  0.82786122  0.73190290     0.09200
H234        H  0.77500015  0.83090029  0.73452733     0.12800
H235        H  0.82294910  0.78263410  0.63404258     0.11500
H236        H  0.77668745  0.77191250  0.60776500     0.12700
H237        H  0.72353599  0.77217394  0.60859792     0.11700
H238        H  0.72925908  0.83119059  0.73521680     0.08800
H239        H  0.67685030  0.82834088  0.73437803     0.12100
H240        H  0.67810037  0.78314773  0.63640721     0.13900
C241        C  0.56037256  0.90472160  0.68717244    -0.01600
C242        C  0.54985148  0.92211111  0.71555131    -0.09600
C243        C  0.54664826  0.96026141  0.71606935    -0.18400
C244        C  0.55402517  0.98220527  0.68806854     0.04000
C245        C  0.56322696  0.96397917  0.65892424     0.18200
C246        C  0.56615376  0.92589080  0.65874698    -0.19800
C247        C  0.57048089  0.98387076  0.63026939    -0.21100
C248        C  0.57002239  0.02170514  0.63019345    -0.19600
C249        C  0.56229743  0.04067044  0.65877355     0.19600
C250        C  0.55360110  0.02142533  0.68801132     0.01700
C251        C  0.54591186  0.04243210  0.71600938    -0.14400
C252        C  0.54817365  0.08072751  0.71534258    -0.12100
C253        C  0.55800041  0.09920958  0.68680650     0.01200
C254        C  0.56423985  0.07889517  0.65843082    -0.24300
H255        H  0.54497628  0.90632990  0.73775343     0.09200
H256        H  0.53900548  0.97190881  0.73890564     0.12800
H257        H  0.57390737  0.91272613  0.63646689     0.11500
H258        H  0.57725245  0.97006699  0.60792082     0.12700
H259        H  0.57644912  0.03627035  0.60778645     0.11700
H260        H  0.53879261  0.02995350  0.73898059     0.08800
H261        H  0.54314901  0.09580293  0.73756529     0.12100
H262        H  0.57164802  0.09286689  0.63608472     0.13900
C263        C  0.60867230  0.43750680  0.86764911    -0.01600
C264        C  0.61015163  0.44551847  0.83368343    -0.09600
C265        C  0.60470079  0.41848292  0.81008056    -0.18400
C266        C  0.59775124  0.38215224  0.81978258     0.04000
C267        C  0.59745844  0.37386547  0.85428674     0.18200
C268        C  0.60292317  0.40130906  0.87764255    -0.19800
C269        C  0.59139172  0.33828080  0.86539081    -0.21100
C270        C  0.58564674  0.31055913  0.84296142    -0.19600
C271        C  0.58560351  0.31768167  0.80879197     0.19600
C272        C  0.59133743  0.35367719  0.79666836     0.01700
C273        C  0.59047882  0.35944469  0.76195432    -0.14400
C274        C  0.58541350  0.33051265  0.74028625    -0.12100
C275        C  0.58078118  0.29484619  0.75225622     0.01200
C276        C  0.58035721  0.28880753  0.78665208    -0.24300
H277        H  0.61451952  0.47304177  0.82520623     0.09200
H278        H  0.60588654  0.42693708  0.78443650     0.12800
H279        H  0.60237279  0.39447576  0.90386563     0.11500
H280        H  0.59115207  0.33179050  0.89168066     0.12700
H281        H  0.58125449  0.28328247  0.85243911     0.11700
H282        H  0.59393414  0.38594595  0.75074149     0.08800
H283        H  0.58567632  0.33605944  0.71384446     0.12100
H284        H  0.57677570  0.26137784  0.79622435     0.13900
C285        C  0.93905425  0.90713493  0.68581209    -0.01600
C286        C  0.94558931  0.92609458  0.65642257    -0.09600
C287        C  0.94857203  0.96393955  0.65598946    -0.18400
C288        C  0.94454495  0.98447808  0.68510220     0.04000
C289        C  0.93860937  0.96510202  0.71516716     0.18200
C290        C  0.93627797  0.92666306  0.71536231    -0.19800
C291        C  0.93414889  0.98432685  0.74456623    -0.21100
C292        C  0.93461379  0.02237395  0.74459412    -0.19600
C293        C  0.93959608  0.04224901  0.71523745     0.19600
C294        C  0.94518524  0.02352742  0.68517620     0.01700
C295        C  0.95023090  0.04475109  0.65623037    -0.14400
C296        C  0.94803249  0.08265836  0.65668990    -0.12100
C297        C  0.94114575  0.10099805  0.68594215     0.01200
C298        C  0.93790364  0.08070977  0.71544108    -0.24300
H299        H  0.94800964  0.91153576  0.63333743     0.09200
H300        H  0.95335292  0.97625634  0.63222933     0.12800
H301        H  0.93098602  0.91213123  0.73816968     0.11500
H302        H  0.92968148  0.96984484  0.76760699     0.12700
H303        H  0.93046323  0.03636695  0.76765082     0.11700
H304        H  0.95519649  0.03295147  0.63256284     0.08800
H305        H  0.95091058  0.09767761  0.63361318     0.12100
H306        H  0.93253255  0.09466445  0.73820056     0.13900
C307        C  0.91819477  0.29747889  0.74162598    -0.01600
C308        C  0.94252422  0.30502207  0.76148026    -0.09600
C309        C  0.94248093  0.33469687  0.78304066    -0.18400
C310        C  0.91776908  0.35767260  0.78574031     0.04000
C311        C  0.89292323  0.34948493  0.76597409     0.18200
C312        C  0.89352990  0.32005032  0.74386434    -0.19800
C313        C  0.86742974  0.37028763  0.76886723    -0.21100
C314        C  0.86577584  0.39842925  0.79174713    -0.19600
C315        C  0.88985621  0.40720327  0.81166346     0.19600
C316        C  0.91648294  0.38772446  0.80806533     0.01700
C317        C  0.94072751  0.39925504  0.82691967    -0.14400
C318        C  0.93811653  0.42703745  0.85004111    -0.12100
C319        C  0.91118319  0.44419359  0.85588621     0.01200
C320        C  0.88738274  0.43497150  0.83550178    -0.24300
H321        H  0.96172483  0.28789705  0.76034256     0.09200
H322        H  0.96186546  0.33838841  0.79786362     0.12800
H323        H  0.87441790  0.31421195  0.72884994     0.11500
H324        H  0.84838101  0.36420142  0.75385697     0.12700
H325        H  0.84548252  0.41336003  0.79394355     0.11700
H326        H  0.96214867  0.38754283  0.82416879     0.08800
H327        H  0.95762777  0.43496905  0.86337535     0.12100
H328        H  0.86665854  0.44856012  0.83855923     0.13900
C329        C  0.82583869  0.19161964  0.67674675    -0.01600
C330        C  0.81153706  0.16938071  0.70015189    -0.09600
C331        C  0.78097984  0.16686398  0.70050825    -0.18400
C332        C  0.76385371  0.18710025  0.67760516     0.04000
C333        C  0.77874804  0.20908480  0.65365398     0.18200
C334        C  0.80930019  0.21078319  0.65325029    -0.19800
C335        C  0.76313891  0.23020105  0.63072786    -0.21100
C336        C  0.73286616  0.23102746  0.63168739    -0.19600
C337        C  0.71749729  0.21047020  0.65538476     0.19600
C338        C  0.73260199  0.18746892  0.67821448     0.01700
C339        C  0.71571110  0.16666749  0.70105997    -0.14400
C340        C  0.68529174  0.17023032  0.70229464    -0.12100
C341        C  0.67086045  0.19427350  0.68069231     0.01200
C342        C  0.68703464  0.21355714  0.65679775    -0.24300
H343        H  0.82398359  0.15422892  0.71849066     0.09200
H344        H  0.77141840  0.14958245  0.71943806     0.12800
H345        H  0.82023623  0.22811411  0.63507472     0.11500
H346        H  0.77445556  0.24688620  0.61238289     0.12700
H347        H  0.72140392  0.24834124  0.61408002     0.11700
H348        H  0.72537294  0.14779381  0.71850521     0.08800
H349        H  0.67306091  0.15441665  0.72048395     0.12100
H350        H  0.67593207  0.23177960  0.63962844     0.13900
C351        C  0.45944782  0.23663002  0.44682480    -0.01600
C352        C  0.48976948  0.24178776  0.44657323    -0.09600
C353        C  0.50532797  0.24487857  0.47623903    -0.18400
C354        C  0.49094544  0.24248657  0.50731808     0.04000
C355        C  0.45998070  0.23883288  0.50733549     0.18200
C356        C  0.44459076  0.23631074  0.47728135    -0.19800
C357        C  0.44463333  0.23640666  0.53734488    -0.21100
C358        C  0.45947320  0.23618079  0.56746249    -0.19600
C359        C  0.49002985  0.23846634  0.56833619     0.19600
C360        C  0.50618283  0.24235929  0.53829243     0.01700
C361        C  0.53696687  0.24478595  0.54054115    -0.14400
C362        C  0.55111160  0.24178580  0.57105064    -0.12100
C363        C  0.53523321  0.23645144  0.60043627     0.01200
C364        C  0.50461579  0.23572204  0.59902323    -0.24300
H365        H  0.50167156  0.24243088  0.42334170     0.09200
H366        H  0.52866101  0.24820479  0.47394080     0.12800
H367        H  0.42104597  0.23253702  0.47770850     0.11500
H368        H  0.42100073  0.23383145  0.53750984     0.12700
H369        H  0.44698493  0.23345636  0.59021283     0.11700
H370        H  0.55085476  0.24823220  0.51915338     0.08800
H371        H  0.57480105  0.24268199  0.57146120     0.12100
H372        H  0.49215580  0.23169863  0.62166428     0.13900
C373        C  0.95600228  0.24027334  0.59035882    -0.01600
C374        C  0.98491290  0.25297874  0.58941587    -0.09600
C375        C  0.99978924  0.25651604  0.55920505    -0.18400
C376        C  0.98623481  0.24669444  0.52893226     0.04000
C377        C  0.95636554  0.23579510  0.52999653     0.18200
C378        C  0.94157251  0.23305445  0.56042449    -0.19800
C379        C  0.94171029  0.22618742  0.50085282    -0.21100
C380        C  0.95644408  0.22548896  0.47072220    -0.19600
C381        C  0.98622199  0.23431116  0.46898174     0.19600
C382        C  0.00143575  0.24580357  0.49791918     0.01700
C383        C  0.03149176  0.25436214  0.49475809    -0.14400
C384        C  0.04604256  0.24999252  0.46464505    -0.12100
C385        C  0.03122244  0.23737937  0.43653173     0.01200
C386        C  0.00111823  0.23044935  0.43867199    -0.24300
H387        H  0.99635558  0.25926241  0.61219790     0.09200
H388        H  0.02210150  0.26601155  0.56050167     0.12800
H389        H  0.91907348  0.22350763  0.56086958     0.11500
H390        H  0.91885038  0.21818625  0.50150275     0.12700
H391        H  0.94463675  0.21701979  0.44877091     0.11700
H392        H  0.04457476  0.26361804  0.51527170     0.08800
H393        H  0.06928387  0.25583262  0.46359890     0.12100
H394        H  0.98945676  0.22076146  0.41703110     0.13900
C395        C  0.16972020  0.20578786  0.35774019    -0.01600
C396        C  0.18421334  0.21443173  0.38717494    -0.09600
C397        C  0.21452825  0.21202667  0.38936587    -0.18400
C398        C  0.23142816  0.20092659  0.36191821     0.04000
C399        C  0.21657830  0.19259955  0.33192594     0.18200
C400        C  0.18597983  0.19479277  0.33019671    -0.19800
C401        C  0.23236742  0.18252858  0.30375973    -0.21100
C402        C  0.26274436  0.18112558  0.30455363    -0.19600
C403        C  0.27800628  0.18913289  0.33370215     0.19600
C404        C  0.26252459  0.19845824  0.36299211     0.01700
C405        C  0.27887360  0.20509026  0.39207476    -0.14400
C406        C  0.30928331  0.20409978  0.39170987    -0.12100
C407        C  0.32446266  0.19641284  0.36252152     0.01200
C408        C  0.30872896  0.18833406  0.33368049    -0.24300
H409        H  0.17204905  0.22312362  0.40872766     0.09200
H410        H  0.22400881  0.21951488  0.41278664     0.12800
H411        H  0.17483162  0.18823894  0.30725655     0.11500
H412        H  0.22116622  0.17617199  0.28082176     0.12700
H413        H  0.27438410  0.17379475  0.28219695     0.11700
H414        H  0.26891100  0.21124108  0.41553701     0.08800
H415        H  0.32099904  0.21007159  0.41439153     0.12100
H416        H  0.32039631  0.18207397  0.31104610     0.13900
C417        C  0.44907916  0.50403377  0.08070810    -0.01600
C418        C  0.47780959  0.50313929  0.09355695    -0.09600
C419        C  0.50246241  0.50218502  0.07306785    -0.18400
C420        C  0.49970461  0.50179186  0.03827982     0.04000
C421        C  0.47075237  0.50240781  0.02495354     0.18200
C422        C  0.44587138  0.50366392  0.04603647    -0.19800
C423        C  0.46682395  0.50162704  0.99055098    -0.21100
C424        C  0.49076622  0.50036179  0.96922695    -0.19600
C425        C  0.51944033  0.49999674  0.98157968     0.19600
C426        C  0.52451925  0.50071402  0.01622997     0.01700
C427        C  0.55417577  0.50045567  0.02700963    -0.14400
C428        C  0.57764535  0.49969733  0.00426604    -0.12100
C429        C  0.57245843  0.49911783  0.96995413     0.01200
C430        C  0.54303665  0.49913609  0.95921759    -0.24300
H431        H  0.48125388  0.50313247  0.12014761     0.09200
H432        H  0.52344601  0.50158171  0.08524827     0.12800
H433        H  0.42419535  0.50403380  0.03527834     0.11500
H434        H  0.44502086  0.50197342  0.97999759     0.12700
H435        H  0.48679057  0.49979363  0.94273517     0.11700
H436        H  0.55992648  0.50105421  0.05292345     0.08800
H437        H  0.59974471  0.49985714  0.01377764     0.12100
H438        H  0.53847669  0.49881255  0.93281882     0.13900
C439        C  0.40558833  0.44071981  0.17948958    -0.01600
C440        C  0.40131335  0.44865551  0.21300872    -0.09600
C441        C  0.40378846  0.42136755  0.23733918    -0.18400
C442        C  0.41076071  0.38504128  0.22883033     0.04000
C443        C  0.41453996  0.37707617  0.19467721     0.18200
C444        C  0.41176851  0.40468540  0.17054275    -0.19800
C445        C  0.42131836  0.34164752  0.18472392    -0.21100
C446        C  0.42453097  0.31377245  0.20800673    -0.19600
C447        C  0.42100261  0.32061485  0.24181997     0.19600
C448        C  0.41407183  0.35632544  0.25282218     0.01700
C449        C  0.41055107  0.36154231  0.28731179    -0.14400
C450        C  0.41292067  0.33233376  0.30967382    -0.12100
C451        C  0.41941727  0.29725118  0.29855090     0.01200
C452        C  0.42389482  0.29169188  0.26467172    -0.24300
H453        H  0.39695940  0.47633010  0.22067278     0.09200
H454        H  0.40048708  0.42971177  0.26259080     0.12800
H455        H  0.41461965  0.39806022  0.14460806     0.11500
H456        H  0.42421372  0.33544924  0.15870701     0.12700
H457        H  0.42971561  0.28660967  0.19947783     0.11700
H458        H  0.40553468  0.38769947  0.29776930     0.08800
H459        H  0.40941646  0.33717654  0.33583152     0.12100
H460        H  0.42864778  0.26447243  0.25591786     0.13900
C461        C  0.07225612  0.50579123  0.07022665    -0.01600
C462        C  0.07751066  0.50687907  0.03593734    -0.09600
C463        C  0.05408793  0.50646292  0.01314814    -0.18400
C464        C  0.02444537  0.50494839  0.02389295     0.04000
C465        C  0.01931935  0.50401777  0.05854328     0.18200
C466        C  0.04285945  0.50440307  0.08093634    -0.19800
C467        C  0.99065905  0.50265387  0.07087194    -0.21100
C468        C  0.96675698  0.50188178  0.04949820    -0.19600
C469        C  0.97074563  0.50251839  0.01510642     0.19600
C470        C  0.99968324  0.50422969  0.00180501     0.01700
C471        C  0.00247504  0.50513111  0.96701741    -0.14400
C472        C  0.97783795  0.50431127  0.94651247    -0.12100
C473        C  0.94914188  0.50237950  0.95939048     0.01200
C474        C  0.94591415  0.50151287  0.99402208    -0.24300
H475        H  0.09961029  0.50811290  0.02647348     0.09200
H476        H  0.05986290  0.50732568  0.98723655     0.12800
H477        H  0.03827558  0.50368444  0.10733424     0.11500
H478        H  0.98666643  0.50205944  0.09737033     0.12700
H479        H  0.94494474  0.50071854  0.06000159     0.11700
H480        H  0.02345322  0.50655939  0.95486208     0.08800
H481        H  0.98125234  0.50525729  0.91991985     0.12100
H482        H  0.92425492  0.50029964  0.00477858     0.13900
C483        C  0.07871310  0.29825457  0.28584771    -0.01600
C484        C  0.07908293  0.33414562  0.29752703    -0.09600
C485        C  0.08500217  0.36360814  0.27620775    -0.18400
C486        C  0.09099521  0.35814036  0.24222445     0.04000
C487        C  0.08970727  0.32173423  0.23025911     0.18200
C488        C  0.08364655  0.29231449  0.25202487    -0.19800
C489        C  0.09477496  0.31484583  0.19668144    -0.21100
C490        C  0.10077786  0.34332473  0.17459824    -0.19600
C491        C  0.10239087  0.37939505  0.18559569     0.19600
C492        C  0.09803995  0.38738114  0.21964931     0.01700
C493        C  0.10099449  0.42426672  0.22947456    -0.14400
C494        C  0.10678479  0.45207412  0.20621168    -0.12100
C495        C  0.10964900  0.44414351  0.17253134     0.01200
C496        C  0.10793989  0.40762222  0.16254349    -0.24300
H497        H  0.07529138  0.33950234  0.32354023     0.09200
H498        H  0.08486368  0.39032041  0.28712050     0.12800
H499        H  0.08355814  0.26464046  0.24275316     0.11500
H500        H  0.09387996  0.28722380  0.18736128     0.12700
H501        H  0.10422591  0.33706721  0.14868221     0.11700
H502        H  0.09868949  0.43254826  0.25489696     0.08800
H503        H  0.10776524  0.48004700  0.21444891     0.12100
H504        H  0.11047263  0.40123058  0.13650014     0.13900
C505        C  0.33831613  0.51043878  0.11791639    -0.01600
C506        C  0.32266270  0.52960689  0.14204524    -0.09600
C507        C  0.29205984  0.53145275  0.14168957    -0.18400
C508        C  0.27535237  0.51411518  0.11684543     0.04000
C509        C  0.29098707  0.49532279  0.09176739     0.18200
C510        C  0.32210244  0.49373580  0.09239717    -0.19800
C511        C  0.27535831  0.47790598  0.06645021    -0.21100
C512        C  0.24476121  0.47838902  0.06567951    -0.19600
C513        C  0.22866423  0.49620251  0.09025535     0.19600
C514        C  0.24378135  0.51452032  0.11611894     0.01700
C515        C  0.22656650  0.53213883  0.14027408    -0.14400
C516        C  0.19590449  0.53089414  0.13926783    -0.12100
C517        C  0.18079460  0.51211376  0.11427849     0.01200
C518        C  0.19756514  0.49533135  0.08941036    -0.24300
H519        H  0.33412304  0.54376663  0.16146910     0.09200
H520        H  0.28211212  0.54668114  0.16137585     0.12800
H521        H  0.33359856  0.47867679  0.07349096     0.11500
H522        H  0.28689954  0.46355718  0.04712251     0.12700
H523        H  0.23357431  0.46439130  0.04577631     0.11700
H524        H  0.23615312  0.54700833  0.16050127     0.08800
H525        H  0.18396770  0.54510927  0.15832606     0.12100
H526        H  0.18646835  0.48060632  0.06988503     0.13900
C527        C  0.46402851  0.76750413  0.44602346    -0.01600
C528        C  0.49459704  0.76587898  0.44556758    -0.09600
C529        C  0.51045772  0.76175552  0.47495675    -0.18400
C530        C  0.49614368  0.75952288  0.50604729     0.04000
C531        C  0.46504128  0.75906024  0.50620804     0.18200
C532        C  0.44934705  0.76287459  0.47635959    -0.19800
C533        C  0.44979181  0.75625370  0.53626029    -0.21100
C534        C  0.46471887  0.75596293  0.56633118    -0.19600
C535        C  0.49525985  0.75854522  0.56710613     0.19600
C536        C  0.51148335  0.75932289  0.53696713     0.01700
C537        C  0.54230071  0.76150541  0.53913632    -0.14400
C538        C  0.55620858  0.76493787  0.56972203    -0.12100
C539        C  0.54004111  0.76611958  0.59920655     0.01200
C540        C  0.50961412  0.76182566  0.59782503    -0.24300
H541        H  0.50643134  0.76892348  0.42241898     0.09200
H542        H  0.53391168  0.76140251  0.47250400     0.12800
H543        H  0.42564624  0.76374133  0.47693584     0.11500
H544        H  0.42609159  0.75535990  0.53655247     0.12700
H545        H  0.45222277  0.75483926  0.58916741     0.11700
H546        H  0.55629130  0.76164551  0.51764724     0.08800
H547        H  0.57980252  0.76787512  0.57012826     0.12100
H548        H  0.49698169  0.76238552  0.62057304     0.13900
C549        C  0.44433966  0.90745498  0.34885641    -0.01600
C550        C  0.44509877  0.92557946  0.31803648    -0.09600
C551        C  0.44750959  0.96387221  0.31628771    -0.18400
C552        C  0.44901374  0.98503270  0.34551763     0.04000
C553        C  0.44987195  0.96595096  0.37640841     0.18200
C554        C  0.44774647  0.92788610  0.37769620    -0.19800
C555        C  0.45165300  0.98488010  0.40623053    -0.21100
C556        C  0.45134258  0.02261374  0.40635910    -0.19600
C557        C  0.44907891  0.04237862  0.37667918     0.19600
C558        C  0.44851541  0.02421005  0.34565945     0.01700
C559        C  0.44621418  0.04615126  0.31659125    -0.14400
C560        C  0.44274273  0.08418262  0.31862113    -0.12100
C561        C  0.44167547  0.10127325  0.34955915     0.01200
C562        C  0.44599432  0.08026666  0.37823762    -0.24300
H563        H  0.44268092  0.91030306  0.29534262     0.09200
H564        H  0.44731199  0.97625293  0.29190273     0.12800
H565        H  0.44755882  0.91412664  0.40165521     0.11500
H566        H  0.45251323  0.97035696  0.42977452     0.12700
H567        H  0.45196274  0.03642670  0.42999557     0.11700
H568        H  0.44607221  0.03452321  0.29213391     0.08800
H569        H  0.43967011  0.09999386  0.29605099     0.12100
H570        H  0.44564725  0.09333826  0.40225221     0.13900
C571        C  0.41945420  0.70983470  0.29895400    -0.01600
C572        C  0.44388100  0.70209658  0.27945026    -0.09600
C573        C  0.44359126  0.67272581  0.25763054    -0.18400
C574        C  0.41852523  0.65016850  0.25426707     0.04000
C575        C  0.39359269  0.65839372  0.27380548     0.18200
C576        C  0.39440403  0.68765421  0.29617988    -0.19800
C577        C  0.36786522  0.63777017  0.27043449    -0.21100
C578        C  0.36613836  0.60968356  0.24747164    -0.19600
C579        C  0.39028224  0.60096748  0.22774394     0.19600
C580        C  0.41703930  0.62045249  0.23155768     0.01700
C581        C  0.44117617  0.60932532  0.21244277    -0.14400
C582        C  0.43839065  0.58175434  0.18907148    -0.12100
C583        C  0.41143548  0.56422746  0.18339665     0.01200
C584        C  0.38772168  0.57322546  0.20388096    -0.24300
H585        H  0.46339666  0.71889961  0.28103050     0.09200
H586        H  0.46314839  0.66892187  0.24320992     0.12800
H587        H  0.37523069  0.69366951  0.31093624     0.11500
H588        H  0.34874285  0.64385891  0.28522300     0.12700
H589        H  0.34571214  0.59478806  0.24501534     0.11700
H590        H  0.46264086  0.62123497  0.21508399     0.08800
H591        H  0.45779943  0.57416743  0.17551806     0.12100
H592        H  0.36698096  0.55942013  0.20097515     0.13900
C593        C  0.03832078  0.77531806  0.43806893    -0.01600
C594        C  0.00773897  0.77487859  0.43768196    -0.09600
C595        C  0.99190627  0.77353582  0.46730523    -0.18400
C596        C  0.00633599  0.77292092  0.49840656     0.04000
C597        C  0.03742097  0.77296127  0.49850861     0.18200
C598        C  0.05299281  0.77369915  0.46856375    -0.19800
C599        C  0.05286025  0.77326984  0.52848139    -0.21100
C600        C  0.03808306  0.77424286  0.55854823    -0.19600
C601        C  0.00750249  0.77437914  0.55939201     0.19600
C602        C  0.99114641  0.77313282  0.52936288     0.01700
C603        C  0.96030912  0.77254792  0.53167800    -0.14400
C604        C  0.94639049  0.77431303  0.56236323    -0.12100
C605        C  0.96259648  0.77667373  0.59175620     0.01200
C606        C  0.99316400  0.77623858  0.59014467    -0.24300
H607        H  0.99596654  0.77639793  0.41439330     0.09200
H608        H  0.96843902  0.77388103  0.46498218     0.12800
H609        H  0.07671179  0.77428471  0.46908325     0.11500
H610        H  0.07657199  0.77336709  0.52866140     0.12700
H611        H  0.05067753  0.77505595  0.58131031     0.11700
H612        H  0.94627910  0.77093402  0.51027561     0.08800
H613        H  0.92269925  0.77447530  0.56298076     0.12100
H614        H  0.00584103  0.77801252  0.61281187     0.13900
C615        C  0.06368825  0.90721740  0.34813506    -0.01600
C616        C  0.05605113  0.92514560  0.31855758    -0.09600
C617        C  0.05335526  0.96330150  0.31749177    -0.18400
C618        C  0.05828436  0.98454271  0.34618076     0.04000
C619        C  0.06440823  0.96566100  0.37637797     0.18200
C620        C  0.06689711  0.92762349  0.37704614    -0.19800
C621        C  0.06903455  0.98481422  0.40572011    -0.21100
C622        C  0.06884888  0.02260567  0.40564878    -0.19600
C623        C  0.06401501  0.04218556  0.37623831     0.19600
C624        C  0.05817028  0.02367793  0.34608761     0.01700
C625        C  0.05333190  0.04529338  0.31724280    -0.14400
C626        C  0.05502592  0.08354954  0.31831660    -0.12100
C627        C  0.06173370  0.10124912  0.34800674     0.01200
C628        C  0.06575270  0.08032890  0.37685143    -0.24300
H629        H  0.05322743  0.90980842  0.29595537     0.09200
H630        H  0.04805118  0.97547273  0.29380263     0.12800
H631        H  0.07232082  0.91387257  0.40018769     0.11500
H632        H  0.07346084  0.97046001  0.42881515     0.12700
H633        H  0.07309215  0.03664924  0.42870036     0.11700
H634        H  0.04872719  0.03338627  0.29345940     0.08800
H635        H  0.05202075  0.09924602  0.29566995     0.12100
H636        H  0.07080709  0.09386394  0.39997752     0.13900
C637        C  0.08417495  0.71226676  0.28824763    -0.01600
C638        C  0.07462016  0.71752173  0.25560690    -0.09600
C639        C  0.07888184  0.69066120  0.23180775    -0.18400
C640        C  0.09308533  0.65749941  0.23993241     0.04000
C641        C  0.10169842  0.65169689  0.27341941     0.18200
C642        C  0.09731751  0.67902387  0.29710753    -0.19800
C643        C  0.11482840  0.61877193  0.28298482    -0.21100
C644        C  0.11924847  0.59120375  0.26003954    -0.19600
C645        C  0.11131550  0.59618353  0.22676002     0.19600
C646        C  0.09877274  0.62977674  0.21613740     0.01700
C647        C  0.09285645  0.63438518  0.18203365    -0.14400
C648        C  0.09759784  0.60620885  0.15979624    -0.12100
C649        C  0.10796431  0.57201950  0.17052796     0.01200
C650        C  0.11561989  0.56767548  0.20405642    -0.24300
H651        H  0.06424963  0.74284583  0.24822536     0.09200
H652        H  0.07072596  0.69667078  0.20729450     0.12800
H653        H  0.10469243  0.67463172  0.32239316     0.11500
H654        H  0.12146713  0.61415563  0.30848705     0.12700
H655        H  0.12906580  0.56585926  0.26836344     0.11700
H656        H  0.08483407  0.65961463  0.17162319     0.08800
H657        H  0.09302570  0.61154457  0.13387739     0.12100
H658        H  0.12425011  0.54191560  0.21284506     0.13900
C659        C  0.17595626  0.80987892  0.35354929    -0.01600
C660        C  0.19097356  0.82348804  0.32579350    -0.09600
C661        C  0.22135237  0.82762168  0.32647381    -0.18400
C662        C  0.23760538  0.81826056  0.35519101     0.04000
C663        C  0.22202389  0.80475524  0.38331761     0.18200
C664        C  0.19161252  0.80059040  0.38217723    -0.19800
C665        C  0.23682842  0.79525538  0.41246515    -0.21100
C666        C  0.26702355  0.79817405  0.41419310    -0.19600
C667        C  0.28310847  0.81038823  0.38672684     0.19600
C668        C  0.26871195  0.82109858  0.35691989     0.01700
C669        C  0.28619457  0.83325447  0.32998457    -0.14400
C670        C  0.31666348  0.83267002  0.33202237    -0.12100
C671        C  0.33054708  0.82042908  0.36096744     0.01200
C672        C  0.31366788  0.81059002  0.38857502    -0.24300
H673        H  0.17920618  0.83089002  0.30341318     0.09200
H674        H  0.23141757  0.83810900  0.30414921     0.12800
H675        H  0.18006586  0.79012188  0.40380204     0.11500
H676        H  0.22498530  0.78514263  0.43399862     0.12700
H677        H  0.27792219  0.79012080  0.43697922     0.11700
H678        H  0.27706060  0.84242026  0.30674070     0.08800
H679        H  0.32938780  0.84076220  0.31047553     0.09700
H680        H  0.32434171  0.80138530  0.41116407     0.13900
loop_ 
_geom_bond_atom_site_label_1 
_geom_bond_atom_site_label_2 
_geom_bond_distance 
_geom_bond_site_symmetry_2 
_ccdc_geom_bond_type 
In1           O3   2.237       .  S
In1           O4   2.253       .  S
In1          O12   2.253       .  S
In1           O6   2.220       .  S
In1           O8   2.223       .  S
In1           O9   2.278       .  S
In1          O10   2.246       .  S
In1          O13   2.214       .  S
C2            O8   1.260       .  A
C2           O10   1.261       .  A
C2          C659   1.471       .  S
O3           C11   1.259       .  A
O4           C11   1.264       .  A
C5           O12   1.264       .  A
C5            O6   1.259       .  A
C5          C593   1.475       .  S
C7            O9   1.265       .  A
C7           O13   1.258       .  A
C7          C615   1.478       .  S
C11         C637   1.479       .  S
In14         O16   2.288       .  S
In14         O17   2.218       .  S
In14         O25   2.251       .  S
In14         O19   2.248       .  S
In14         O21   2.226       .  S
In14         O22   2.264       .  S
In14         O23   2.235       .  S
In14         O26   2.247       .  S
C15          O21   1.262       .  A
C15          O23   1.262       .  A
C15         C671   1.470       .  S
O16          C24   1.264       .  A
O17          C24   1.258       .  A
C18          O25   1.263       .  A
C18          O19   1.261       .  A
C18         C527   1.481       .  S
C20          O22   1.264       .  A
C20          O26   1.258       .  A
C20         C571   1.483       .  S
C24         C549   1.483       .  S
C27          C28   1.531       .  S
C27          C33   1.529       .  S
C27          C31   1.559       .  S
C27         C461   1.541       .  S
C28          H35   1.085       .  S
C28          C29   1.364       .  D
C29          C30   1.546       .  S
C29         C649   1.498       .  S
C30          C34   1.546       .  S
C30          C32   1.555       .  S
C30          H36   1.108       .  S
C31          H37   1.083       .  S
C31          C32   1.386       .  D
C32         C517   1.514       .  S
C33          H38   1.087       .  S
C33          C34   1.360       .  D
C34         C495   1.488       .  S
C39          C40   1.531       .  S
C39          C45   1.535       .  S
C39          C43   1.560       .  S
C39         C417   1.546       .  S
C40          H47   1.086       .  S
C40          C41   1.361       .  D
C41          C42   1.541       .  S
C41         C439   1.487       .  S
C42          C46   1.544       .  S
C42          C44   1.554       .  S
C42          H48   1.107       .  S
C43          H49   1.084       .  S
C43          C44   1.386       .  D
C44         C505   1.516       .  S
C45          H50   1.085       .  S
C45          C46   1.367       .  D
C46         C583   1.502       .  S
In51         O53   2.218       .  S
In51         O54   2.279       .  S
In51         O62   2.265       .  S
In51         O56   2.223       .  S
In51         O58   2.234       .  S
In51         O59   2.271       .  S
In51         O60   2.241       .  S
In51         O63   2.242       .  S
C52          O58   1.259       .  A
C52          O60   1.259       .  A
C52         C395   1.471       .  S
O53          C61   1.258       .  A
O54          C61   1.266       .  A
C55          O62   1.267       .  A
C55          O56   1.260       .  A
C55         C385   1.481       .  S
C57          O59   1.262       .  A
C57          O63   1.258       .  A
C57         C483   1.483       .  S
C61         C627   1.479       .  S
In64         O66   2.238       .  S
In64         O67   2.250       .  S
In64         O75   2.257       .  S
In64         O69   2.229       .  S
In64         O71   2.229       .  S
In64         O72   2.227       .  S
In64         O73   2.257       .  S
In64         O76   2.282       .  S
C65          O71   1.257       .  A
C65          O73   1.259       .  A
C65         C407   1.472       .  S
O66          C74   1.258       .  A
O67          C74   1.262       .  A
C68          O75   1.265       .  A
C68          O69   1.259       .  A
C68         C351   1.478       .  S
C70          O72   1.258       .  A
C70          O76   1.261       .  A
C70         C561   1.481       .  S
C74         C451   1.474       .  S
In77         O79   2.228       .  S
In77         O80   2.285       .  S
In77         O88   2.265       .  S
In77         O82   2.226       .  S
In77         O84   2.218       .  S
In77         O85   2.278       .  S
In77         O86   2.256       .  S
In77         O89   2.235       .  S
C78          O84   1.260       .  A
C78          O86   1.262       .  A
C78         C329   1.473       .  S
O79          C87   1.257       .  A
O80          C87   1.265       .  A
C81          O88   1.265       .  A
C81          O82   1.260       .  A
C81         C373   1.480       .  S
C83          O85   1.266       .  A
C83          O89   1.256       .  A
C83         C307   1.483       .  S
C87         C297   1.483       .  S
In90         O92   2.245       .  S
In90         O93   2.285       .  S
In90        O101   2.265       .  S
In90         O95   2.216       .  S
In90         O97   2.231       .  S
In90         O98   2.287       .  S
In90         O99   2.253       .  S
In90        O102   2.220       .  S
C91          O97   1.259       .  A
C91          O99   1.260       .  A
C91         C341   1.473       .  S
O92         C100   1.257       .  A
O93         C100   1.264       .  A
C94         O101   1.267       .  A
C94          O95   1.260       .  A
C94         C363   1.479       .  S
C96          O98   1.268       .  A
C96         O102   1.258       .  A
C96         C253   1.486       .  S
C100        C275   1.488       .  S
In103       O105   2.230       .  S
In103       O106   2.292       .  S
In103       O114   2.264       .  S
In103       O108   2.219       .  S
In103       O110   2.225       .  S
In103       O111   2.274       .  S
In103       O112   2.253       .  S
In103       O115   2.246       .  S
C104        O110   1.258       .  A
C104        O112   1.261       .  A
C104        C231   1.472       .  S
O105        C113   1.258       .  A
O106        C113   1.265       .  A
C107        O114   1.266       .  A
C107        O108   1.258       .  A
C107        C539   1.478       .  S
C109        O111   1.264       .  A
C109        O115   1.258       .  A
C109        C197   1.486       .  S
C113        C241   1.487       .  S
In116       O118   2.239       .  S
In116       O119   2.256       .  S
In116       O127   2.255       .  S
In116       O121   2.217       .  S
In116       O123   2.226       .  S
In116       O124   2.279       .  S
In116       O125   2.244       .  S
In116       O128   2.223       .  S
C117        O123   1.259       .  A
C117        O125   1.260       .  A
C117        C219   1.470       .  S
O118        C126   1.258       .  A
O119        C126   1.264       .  A
C120        O127   1.266       .  A
C120        O121   1.260       .  A
C120        C605   1.475       .  S
C122        O124   1.264       .  A
C122        O128   1.257       .  A
C122        C285   1.478       .  S
C126        C175   1.478       .  S
C129        C130   1.532       .  S
C129        C135   1.528       .  S
C129        C133   1.559       .  S
C129        C429   1.544       .  S
C130        H137   1.086       .  S
C130        C131   1.363       .  D
C131        C132   1.547       .  S
C131        C263   1.495       .  S
C132        C136   1.550       .  S
C132        C134   1.555       .  S
C132        H138   1.109       .  S
C133        H139   1.084       .  S
C133        C134   1.385       .  D
C134        C153   1.512       .  S
C135        H140   1.086       .  S
C135        C136   1.363       .  D
C136        C209   1.499       .  S
C141        C142   1.528       .  S
C141        C147   1.532       .  S
C141        C145   1.557       .  S
C141        C473   1.542       .  S
C142        H149   1.086       .  S
C142        C143   1.362       .  D
C143        C144   1.544       .  S
C143        C187   1.489       .  S
C144        C148   1.546       .  S
C144        C146   1.554       .  S
C144        H150   1.108       .  S
C145        H151   1.084       .  S
C145        C146   1.384       .  D
C146        C165   1.510       .  S
C147        H152   1.085       .  S
C147        C148   1.366       .  D
C148        C319   1.502       .  S
C153        C154   1.404       .  A
C153        C158   1.410       .  A
C154        C155   1.404       .  A
C154        H167   1.083       .  S
C155        C156   1.416       .  A
C155        H168   1.077       .  S
C156        C162   1.445       .  A
C156        C157   1.424       .  A
C157        C159   1.403       .  A
C157        C158   1.422       .  A
C158        H169   1.084       .  S
C159        C160   1.398       .  A
C159        H170   1.084       .  S
C160        C161   1.402       .  A
C160        H171   1.084       .  S
C161        C162   1.424       .  A
C161        C166   1.422       .  A
C162        C163   1.416       .  A
C163        C164   1.403       .  A
C163        H172   1.077       .  S
C164        C165   1.403       .  A
C164        H173   1.080       .  S
C165        C166   1.409       .  A
C166        H174   1.084       .  S
C175        C176   1.398       .  A
C175        C180   1.404       .  A
C176        C177   1.396       .  A
C176        H189   1.083       .  S
C177        C178   1.415       .  A
C177        H190   1.078       .  S
C178        C184   1.427       .  A
C178        C179   1.420       .  A
C179        C181   1.401       .  A
C179        C180   1.406       .  A
C180        H191   1.084       .  S
C181        C182   1.393       .  A
C181        H192   1.084       .  S
C182        C183   1.400       .  A
C182        H193   1.084       .  S
C183        C184   1.422       .  A
C183        C188   1.409       .  A
C184        C185   1.411       .  A
C185        C186   1.392       .  A
C185        H194   1.078       .  S
C186        C187   1.403       .  A
C186        H195   1.083       .  S
C187        C188   1.402       .  A
C188        H196   1.084       .  S
C197        C198   1.400       .  A
C197        C202   1.406       .  A
C198        C199   1.400       .  A
C198        H211   1.083       .  S
C199        C200   1.417       .  A
C199        H212   1.078       .  S
C200        C206   1.433       .  A
C200        C201   1.420       .  A
C201        C203   1.401       .  A
C201        C202   1.409       .  A
C202        H213   1.084       .  S
C203        C204   1.393       .  A
C203        H214   1.084       .  S
C204        C205   1.400       .  A
C204        H215   1.084       .  S
C205        C206   1.423       .  A
C205        C210   1.413       .  A
C206        C207   1.411       .  A
C207        C208   1.395       .  A
C207        H216   1.078       .  S
C208        C209   1.406       .  A
C208        H217   1.083       .  S
C209        C210   1.403       .  A
C210        H218   1.080       .  S
C219        C220   1.398       .  A
C219        C224   1.398       .  A
C220        C221   1.395       .  A
C220        H233   1.083       .  S
C221        C222   1.415       .  A
C221        H234   1.077       .  S
C222        C228   1.427       .  A
C222        C223   1.422       .  A
C223        C225   1.398       .  A
C223        C224   1.399       .  A
C224        H235   1.085       .  S
C225        C226   1.386       .  A
C225        H236   1.084       .  S
C226        C227   1.398       .  A
C226        H237   1.084       .  S
C227        C228   1.422       .  A
C227        C232   1.400       .  A
C228        C229   1.416       .  A
C229        C230   1.396       .  A
C229        H238   1.077       .  S
C230        C231   1.398       .  A
C230        H239   1.083       .  S
C231        C232   1.399       .  A
C232        H240   1.085       .  S
C241        C242   1.402       .  A
C241        C246   1.401       .  A
C242        C243   1.407       .  A
C242        H255   1.083       .  S
C243        C244   1.419       .  A
C243        H256   1.078       .  S
C244        C250   1.437   1_565  A
C244        C245   1.423       .  A
C245        C247   1.398       .  A
C245        C246   1.403       .  A
C246        H257   1.085       .  S
C247        C248   1.387   1_565  A
C247        H258   1.084       .  S
C248        C249   1.398       .  A
C248        H259   1.084       .  S
C249        C250   1.423       .  A
C249        C254   1.403       .  A
C250        C251   1.419       .  A
C251        C252   1.406       .  A
C251        H260   1.078       .  S
C252        C253   1.401       .  A
C252        H261   1.083       .  S
C253        C254   1.402       .  A
C254        H262   1.085       .  S
C263        C264   1.399       .  A
C263        C268   1.405       .  A
C264        C265   1.402       .  A
C264        H277   1.079       .  S
C265        C266   1.418       .  A
C265        H278   1.077       .  S
C266        C272   1.435       .  A
C266        C267   1.421       .  A
C267        C269   1.400       .  A
C267        C268   1.406       .  A
C268        H279   1.084       .  S
C269        C270   1.391       .  A
C269        H280   1.084       .  S
C270        C271   1.399       .  A
C270        H281   1.084       .  S
C271        C272   1.425       .  A
C271        C276   1.411       .  A
C272        C273   1.414       .  A
C273        C274   1.399       .  A
C273        H282   1.078       .  S
C274        C275   1.403       .  A
C274        H283   1.083       .  S
C275        C276   1.402       .  A
C276        H284   1.084       .  S
C285        C286   1.399       .  A
C285        C290   1.402       .  A
C286        C287   1.392       .  A
C286        H299   1.084       .  S
C287        C288   1.414       .  A
C287        H300   1.076       .  S
C288        C294   1.431   1_565  A
C288        C289   1.424       .  A
C289        C291   1.401       .  A
C289        C290   1.412       .  A
C290        H301   1.084       .  S
C291        C292   1.394   1_565  A
C291        H302   1.084       .  S
C292        C293   1.401       .  A
C292        H303   1.084       .  S
C293        C294   1.423       .  A
C293        C298   1.412       .  A
C294        C295   1.414       .  A
C295        C296   1.393       .  A
C295        H304   1.077       .  S
C296        C297   1.400       .  A
C296        H305   1.084       .  S
C297        C298   1.403       .  A
C298        H306   1.084       .  S
C307        C308   1.398       .  A
C307        C312   1.406       .  A
C308        C309   1.399       .  A
C308        H321   1.083       .  S
C309        C310   1.418       .  A
C309        H322   1.077       .  S
C310        C316   1.431       .  A
C310        C311   1.420       .  A
C311        C313   1.402       .  A
C311        C312   1.407       .  A
C312        H323   1.084       .  S
C313        C314   1.393       .  A
C313        H324   1.084       .  S
C314        C315   1.400       .  A
C314        H325   1.084       .  S
C315        C316   1.423       .  A
C315        C320   1.412       .  A
C316        C317   1.409       .  A
C317        C318   1.393       .  A
C317        H326   1.078       .  S
C318        C319   1.407       .  A
C318        H327   1.081       .  S
C319        C320   1.405       .  A
C320        H328   1.080       .  S
C329        C330   1.400       .  A
C329        C334   1.398       .  A
C330        C331   1.399       .  A
C330        H343   1.083       .  S
C331        C332   1.417       .  A
C331        H344   1.078       .  S
C332        C338   1.429       .  A
C332        C333   1.422       .  A
C333        C335   1.398       .  A
C333        C334   1.398       .  A
C334        H345   1.085       .  S
C335        C336   1.385       .  A
C335        H346   1.084       .  S
C336        C337   1.397       .  A
C336        H347   1.084       .  S
C337        C338   1.423       .  A
C337        C342   1.399       .  A
C338        C339   1.416       .  A
C339        C340   1.398       .  A
C339        H348   1.078       .  S
C340        C341   1.400       .  A
C340        H349   1.083       .  S
C341        C342   1.398       .  A
C342        H350   1.085       .  S
C351        C352   1.398       .  A
C351        C356   1.403       .  A
C352        C353   1.397       .  A
C352        H365   1.083       .  S
C353        C354   1.417       .  A
C353        H366   1.077       .  S
C354        C360   1.430       .  A
C354        C355   1.421       .  A
C355        C357   1.400       .  A
C355        C356   1.405       .  A
C356        H367   1.084       .  S
C357        C358   1.391       .  A
C357        H368   1.084       .  S
C358        C359   1.399       .  A
C358        H369   1.084       .  S
C359        C360   1.424       .  A
C359        C364   1.408       .  A
C360        C361   1.412       .  A
C361        C362   1.393       .  A
C361        H370   1.077       .  S
C362        C363   1.401       .  A
C362        H371   1.083       .  S
C363        C364   1.401       .  A
C364        H372   1.084       .  S
C373        C374   1.399       .  A
C373        C378   1.402       .  A
C374        C375   1.400       .  A
C374        H387   1.083       .  S
C375        C376   1.418       .  A
C375        H388   1.077   1_655  S
C376        C382   1.431   1_655  A
C376        C377   1.421       .  A
C377        C379   1.400       .  A
C377        C378   1.403       .  A
C378        H389   1.085       .  S
C379        C380   1.390       .  A
C379        H390   1.084       .  S
C380        C381   1.399       .  A
C380        H391   1.084       .  S
C381        C382   1.424   1_655  A
C381        C386   1.408   1_655  A
C382        C383   1.413       .  A
C383        C384   1.396       .  A
C383        H392   1.077       .  S
C384        C385   1.402       .  A
C384        H393   1.083       .  S
C385        C386   1.400       .  A
C386        H394   1.084   1_455  S
C395        C396   1.398       .  A
C395        C400   1.400       .  A
C396        C397   1.392       .  A
C396        H409   1.083       .  S
C397        C398   1.414       .  A
C397        H410   1.077       .  S
C398        C404   1.426       .  A
C398        C399   1.422       .  A
C399        C401   1.400       .  A
C399        C400   1.403       .  A
C400        H411   1.084       .  S
C401        C402   1.390       .  A
C401        H412   1.084       .  S
C402        C403   1.400       .  A
C402        H413   1.084       .  S
C403        C404   1.423       .  A
C403        C408   1.405       .  A
C404        C405   1.413       .  A
C405        C406   1.391       .  A
C405        H414   1.077       .  S
C406        C407   1.398       .  A
C406        H415   1.083       .  S
C407        C408   1.401       .  A
C408        H416   1.084       .  S
C417        C418   1.412       .  A
C417        C422   1.406       .  A
C418        C419   1.398       .  A
C418        H431   1.084       .  S
C419        C420   1.408       .  A
C419        H432   1.078       .  S
C420        C426   1.442       .  A
C420        C421   1.429       .  A
C421        C423   1.399   1_554  A
C421        C422   1.421       .  A
C422        H433   1.082       .  S
C423        C424   1.393       .  A
C423        H434   1.084       .  S
C424        C425   1.402       .  A
C424        H435   1.084       .  S
C425        C426   1.417   1_556  A
C425        C430   1.407       .  A
C426        C427   1.424       .  A
C427        C428   1.412       .  A
C427        H436   1.078       .  S
C428        C429   1.404   1_554  A
C428        H437   1.081       .  S
C429        C430   1.413       .  A
C430        H438   1.085       .  S
C439        C440   1.399       .  A
C439        C444   1.403       .  A
C440        C441   1.398       .  A
C440        H453   1.083       .  S
C441        C442   1.416       .  A
C441        H454   1.077       .  S
C442        C448   1.430       .  A
C442        C443   1.421       .  A
C443        C445   1.399       .  A
C443        C444   1.402       .  A
C444        H455   1.084       .  S
C445        C446   1.388       .  A
C445        H456   1.084       .  S
C446        C447   1.398       .  A
C446        H457   1.084       .  S
C447        C448   1.424       .  A
C447        C452   1.404       .  A
C448        C449   1.415       .  A
C449        C450   1.397       .  A
C449        H458   1.077       .  S
C450        C451   1.399       .  A
C450        H459   1.083       .  S
C451        C452   1.398       .  A
C452        H460   1.085       .  S
C461        C462   1.403       .  A
C461        C466   1.412       .  A
C462        C463   1.411       .  A
C462        H475   1.080       .  S
C463        C464   1.423       .  A
C463        H476   1.078   1_554  S
C464        C470   1.440   1_455  A
C464        C465   1.417       .  A
C465        C467   1.402   1_455  A
C465        C466   1.405       .  A
C466        H477   1.085       .  S
C467        C468   1.392       .  A
C467        H478   1.084       .  S
C468        C469   1.399       .  A
C468        H479   1.084       .  S
C469        C470   1.428       .  A
C469        C474   1.419   1_554  A
C470        C471   1.408   1_654  A
C471        C472   1.397   1_455  A
C471        H480   1.078       .  S
C472        C473   1.412       .  A
C472        H481   1.084       .  S
C473        C474   1.404       .  A
C474        H482   1.081   1_556  S
C483        C484   1.402       .  A
C483        C488   1.402       .  A
C484        C485   1.398       .  A
C484        H497   1.083       .  S
C485        C486   1.414       .  A
C485        H498   1.077       .  S
C486        C492   1.434       .  A
C486        C487   1.424       .  A
C487        C489   1.399       .  A
C487        C488   1.409       .  A
C488        H499   1.084       .  S
C489        C490   1.391       .  A
C489        H500   1.084       .  S
C490        C491   1.400       .  A
C490        H501   1.084       .  S
C491        C492   1.421       .  A
C491        C496   1.405       .  A
C492        C493   1.418       .  A
C493        C494   1.402       .  A
C493        H502   1.077       .  S
C494        C495   1.398       .  A
C494        H503   1.081       .  S
C495        C496   1.403       .  A
C496        H504   1.085       .  S
C505        C506   1.404       .  A
C505        C510   1.411       .  A
C506        C507   1.401       .  A
C506        H519   1.078       .  S
C507        C508   1.414       .  A
C507        H520   1.077       .  S
C508        C514   1.444       .  A
C508        C509   1.424       .  A
C509        C511   1.403       .  A
C509        C510   1.424       .  A
C510        H521   1.084       .  S
C511        C512   1.399       .  A
C511        H522   1.084       .  S
C512        C513   1.403       .  A
C512        H523   1.084       .  S
C513        C514   1.423       .  A
C513        C518   1.422       .  A
C514        C515   1.416       .  A
C515        C516   1.403       .  A
C515        H524   1.077       .  S
C516        C517   1.405       .  A
C516        H525   1.082       .  S
C517        C518   1.411       .  A
C518        H526   1.084       .  S
C527        C528   1.399       .  A
C527        C532   1.403       .  A
C528        C529   1.396       .  A
C528        H541   1.083       .  S
C529        C530   1.415       .  A
C529        H542   1.077       .  S
C530        C536   1.430       .  A
C530        C531   1.422       .  A
C531        C533   1.401       .  A
C531        C532   1.407       .  A
C532        H543   1.084       .  S
C533        C534   1.391       .  A
C533        H544   1.084       .  S
C534        C535   1.399       .  A
C534        H545   1.084       .  S
C535        C536   1.424       .  A
C535        C540   1.408       .  A
C536        C537   1.413       .  A
C537        C538   1.394       .  A
C537        H546   1.077       .  S
C538        C539   1.401       .  A
C538        H547   1.083       .  S
C539        C540   1.400       .  A
C540        H548   1.084       .  S
C549        C550   1.403       .  A
C549        C554   1.398       .  A
C550        C551   1.408       .  A
C550        H563   1.083       .  S
C551        C552   1.419       .  A
C551        H564   1.078       .  S
C552        C558   1.436   1_565  A
C552        C553   1.422       .  A
C553        C555   1.397       .  A
C553        C554   1.398       .  A
C554        H565   1.085       .  S
C555        C556   1.383   1_565  A
C555        H566   1.084       .  S
C556        C557   1.396       .  A
C556        H567   1.084       .  S
C557        C558   1.423       .  A
C557        C562   1.398       .  A
C558        C559   1.418       .  A
C559        C560   1.407       .  A
C559        H568   1.078       .  S
C560        C561   1.403       .  A
C560        H569   1.083       .  S
C561        C562   1.397       .  A
C562        H570   1.085       .  S
C571        C572   1.398       .  A
C571        C576   1.405       .  A
C572        C573   1.397       .  A
C572        H585   1.083       .  S
C573        C574   1.416       .  A
C573        H586   1.077       .  S
C574        C580   1.431       .  A
C574        C575   1.421       .  A
C575        C577   1.402       .  A
C575        C576   1.409       .  A
C576        H587   1.084       .  S
C577        C578   1.394       .  A
C577        H588   1.084       .  S
C578        C579   1.401       .  A
C578        H589   1.084       .  S
C579        C580   1.422       .  A
C579        C584   1.411       .  A
C580        C581   1.411       .  A
C581        C582   1.394       .  A
C581        H590   1.077       .  S
C582        C583   1.406       .  A
C582        H591   1.081       .  S
C583        C584   1.406       .  A
C584        H592   1.079       .  S
C593        C594   1.398       .  A
C593        C598   1.401       .  A
C594        C595   1.397   1_455  A
C594        H607   1.083   1_455  S
C595        C596   1.417   1_655  A
C595        H608   1.077       .  S
C596        C602   1.428   1_455  A
C596        C597   1.421       .  A
C597        C599   1.400       .  A
C597        C598   1.402       .  A
C598        H609   1.085       .  S
C599        C600   1.389       .  A
C599        H610   1.084       .  S
C600        C601   1.398       .  A
C600        H611   1.084       .  S
C601        C602   1.424   1_455  A
C601        C606   1.405   1_455  A
C602        C603   1.413       .  A
C603        C604   1.394       .  A
C603        H612   1.077       .  S
C604        C605   1.401       .  A
C604        H613   1.083       .  S
C605        C606   1.399       .  A
C606        H614   1.084   1_655  S
C615        C616   1.400       .  A
C615        C620   1.399       .  A
C616        C617   1.404       .  A
C616        H629   1.083       .  S
C617        C618   1.418       .  A
C617        H630   1.078       .  S
C618        C624   1.434   1_565  A
C618        C619   1.422       .  A
C619        C621   1.397       .  A
C619        C620   1.399       .  A
C620        H631   1.085       .  S
C621        C622   1.385   1_565  A
C621        H632   1.084       .  S
C622        C623   1.398       .  A
C622        H633   1.084       .  S
C623        C624   1.423       .  A
C623        C628   1.400       .  A
C624        C625   1.418       .  A
C625        C626   1.405       .  A
C625        H634   1.078       .  S
C626        C627   1.401       .  A
C626        H635   1.083       .  S
C627        C628   1.399       .  A
C628        H636   1.085       .  S
C637        C638   1.398       .  A
C637        C642   1.404       .  A
C638        C639   1.396       .  A
C638        H651   1.083       .  S
C639        C640   1.416       .  A
C639        H652   1.077       .  S
C640        C646   1.430       .  A
C640        C641   1.421       .  A
C641        C643   1.401       .  A
C641        C642   1.406       .  A
C642        H653   1.084       .  S
C643        C644   1.393       .  A
C643        H654   1.084       .  S
C644        C645   1.400       .  A
C644        H655   1.084       .  S
C645        C646   1.423       .  A
C645        C650   1.411       .  A
C646        C647   1.410       .  A
C647        C648   1.393       .  A
C647        H656   1.077       .  S
C648        C649   1.406       .  A
C648        H657   1.082       .  S
C649        C650   1.404       .  A
C650        H658   1.081       .  S
C659        C660   1.399       .  A
C659        C664   1.398       .  A
C660        C661   1.396       .  A
C660        H673   1.083       .  S
C661        C662   1.416       .  A
C661        H674   1.077       .  S
C662        C668   1.427       .  A
C662        C663   1.422       .  A
C663        C665   1.398       .  A
C663        C664   1.398       .  A
C664        H675   1.085       .  S
C665        C666   1.386       .  A
C665        H676   1.084       .  S
C666        C667   1.398       .  A
C666        H677   1.084       .  S
C667        C668   1.423       .  A
C667        C672   1.399       .  A
C668        C669   1.415       .  A
C669        C670   1.396       .  A
C669        H678   1.077       .  S
C670        C671   1.399       .  A
C670        H679   1.083       .  S
C671        C672   1.397       .  A
C672        H680   1.085       .  S
