geometry optimzed in LAMMPS
_audit_creation_date              2020-11-30 
_audit_creation_method            'lammps2cif' 
_symmetry_space_group_name_H-M    'P1' 
_symmetry_Int_Tables_number       1 
_symmetry_cell_setting            triclinic 
loop_ 
_symmetry_equiv_pos_as_xyz 
  x,y,z 
_cell_length_a                    42.90844981 
_cell_length_b                    43.54302123555629 
_cell_length_c                    41.501256529875135 
_cell_angle_alpha                 89.96328509624587 
_cell_angle_beta                  90.05880519588315 
_cell_angle_gamma                 120.39765648093864 
loop_ 
_atom_site_label 
_atom_site_type_symbol 
_atom_site_fract_x 
_atom_site_fract_y 
_atom_site_fract_z 
_atom_site_charge 
O1          O  0.11678126  0.33853105  0.34203374    -0.82000
C2          C  0.20233411  0.29918628  0.41547323     0.97400
O3          O  0.17572829  0.27855920  0.39786077    -0.71100
O4          O  0.11565975  0.27831349  0.40977655    -0.74700
Al5        Al  0.14287098  0.28572563  0.37175062     1.49000
C6          C  0.09921054  0.29395720  0.41854716     0.92600
O7          O  0.16861924  0.37958538  0.41898098    -0.80900
O8          O  0.21756420  0.38331092  0.33789740    -0.74400
Al9        Al  0.14433983  0.35747760  0.38001209     1.90100
O10         O  0.22293115  0.39453503  0.40294220    -0.73500
O11         O  0.22093484  0.32527365  0.34632291    -0.73400
O12         O  0.21832361  0.33246165  0.41143168    -0.79000
O13         O  0.16590776  0.28584890  0.33278324    -0.77200
O14         O  0.16739134  0.33316458  0.37552263    -1.13400
O15         O  0.10553916  0.28349110  0.34525116    -0.72600
C16         C  0.09968246  0.30657089  0.33293226     0.98200
C17         C  0.20236161  0.39876193  0.42171430     0.94600
Al18       Al  0.21566606  0.35676304  0.37473514     1.55600
O19         O  0.10634619  0.32326277  0.40630877    -0.77200
C20         C  0.19937399  0.30011930  0.32842837     0.98700
C21         C  0.20293565  0.40211125  0.33537884     0.93600
O22         O  0.17766558  0.39725799  0.35417727    -0.82500
O23         O  0.33419180  0.12025865  0.16834051    -0.82000
C24         C  0.29795098  0.19702826  0.07993544     0.97400
O25         O  0.27701201  0.17132634  0.09771615    -0.71100
O26         O  0.28298065  0.11478161  0.08813694    -0.74700
Al27       Al  0.28398348  0.14016476  0.12541583     1.49000
C28         C  0.29867974  0.09709605  0.08490563     0.92600
O29         O  0.38338435  0.16273657  0.09099581    -0.80900
O30         O  0.38158344  0.22006040  0.16123774    -0.74400
Al31       Al  0.35708342  0.14283192  0.12928443     1.90100
O32         O  0.39395384  0.21725264  0.09669665    -0.73500
O33         O  0.32056540  0.21780886  0.14813969    -0.73400
O34         O  0.33164751  0.21174336  0.08346559    -0.79000
O35         O  0.28033638  0.16332063  0.16259187    -0.77200
O36         O  0.33219758  0.16534690  0.12579693    -1.13400
O37         O  0.27886645  0.10264751  0.15311026    -0.72600
C38         C  0.30068227  0.10026809  0.17187825     0.98200
C39         C  0.40060282  0.19514645  0.08332823     0.94600
Al40       Al  0.35500013  0.21264950  0.12265642     1.55600
O41         O  0.32438456  0.10249104  0.10350909    -0.77200
C42         C  0.29420466  0.19655352  0.16563095     0.98700
C43         C  0.40025688  0.20629368  0.16881503     0.93600
O44         O  0.39502282  0.17812119  0.15530596    -0.82500
C45         C  0.07085800  0.27790955  0.44320736    -0.12100
C46         C  0.04070221  0.24345029  0.43940110     0.03300
C47         C  0.01312899  0.22995152  0.46244316    -0.12700
C48         C  0.01515323  0.25042277  0.48928377     0.18200
C49         C  0.04477918  0.28423764  0.99280012    -0.09700
C50         C  0.07300626  0.29821813  0.47021456    -0.02700
H51         H  0.48972688  0.20370767  0.45913272     0.04700
C52         C  0.48447892  0.23515854  0.01205224     0.20200
H53         H  0.09614734  0.32470656  0.47333288     0.09900
C54         C  0.48099033  0.20892224  0.03371615    -0.16000
C55         C  0.45364795  0.19522147  0.05696233     0.02900
C56         C  0.42906365  0.20773729  0.05854590    -0.11400
C57         C  0.43243813  0.23376064  0.03655756    -0.01400
C58         C  0.45969222  0.24728488  0.01327072    -0.06600
H59         H  0.00012156  0.19966860  0.03297337     0.05900
H60         H  0.41365170  0.24344183  0.03736067     0.09300
Br61       Br  0.04996375  0.31291285  0.02975398    -0.06300
Br62       Br  0.03457239  0.21496666  0.40203257    -0.03200
Br63       Br  0.45327180  0.16174916  0.08734572    -0.00400
Br64       Br  0.46261195  0.28262796  0.48408949    -0.04700
C65         C  0.42892251  0.22308639  0.19349545    -0.12100
C66         C  0.45157459  0.26042116  0.19587917     0.03300
C67         C  0.47980979  0.27483437  0.21833983    -0.12700
C68         C  0.48599023  0.25269100  0.23856759     0.18200
C69         C  0.46285997  0.21556042  0.23687447    -0.09700
C70         C  0.43494382  0.20106707  0.21419758    -0.02700
H71         H  0.99751003  0.30346518  0.21962271     0.04700
C72         C  0.01658547  0.26870724  0.26139428     0.20200
H73         H  0.41771829  0.17239310  0.21283576     0.09900
C74         C  0.01451841  0.28669491  0.28858065    -0.16000
C75         C  0.04199397  0.30018998  0.31174065     0.02900
C76         C  0.07193555  0.29552753  0.30783441    -0.11400
C77         C  0.07444341  0.27831576  0.28026832    -0.01400
C78         C  0.04729821  0.26541082  0.25683559    -0.06600
H79         H  0.49103590  0.28941682  0.29217478     0.05900
H80         H  0.09758513  0.27499165  0.27696898     0.09300
Br81       Br  0.46785034  0.18372926  0.26559918    -0.06300
Br82       Br  0.44732779  0.29306909  0.16765628    -0.03200
Br83       Br  0.03607639  0.32224048  0.34943837    -0.00400
Br84       Br  0.05353150  0.24401583  0.21882088    -0.04700
C85         C  0.21664151  0.43105087  0.31112702    -0.12100
C86         C  0.19521648  0.44463741  0.29882476     0.03300
C87         C  0.21001492  0.47268490  0.27668640    -0.12700
C88         C  0.24570910  0.48733359  0.26597516     0.18200
C89         C  0.26704530  0.47379338  0.27795469    -0.09700
C90         C  0.25247827  0.44593282  0.30028855    -0.02700
H91         H  0.19339655  0.48287875  0.26737479     0.04700
C92         C  0.25982625  0.01625140  0.24183751     0.20200
H93         H  0.26943418  0.43602419  0.30936103     0.09900
C94         C  0.28755170  0.05047729  0.25044432    -0.16000
C95         C  0.30129450  0.07838729  0.22810220     0.02900
C96         C  0.28665464  0.07229365  0.19674773    -0.11400
C97         C  0.25854542  0.03816986  0.18837626    -0.01400
C98         C  0.24540541  0.01015728  0.21046025    -0.06600
H99         H  0.29851201  0.05546252  0.27468283     0.05900
H100        H  0.24746184  0.03300525  0.16418384     0.09300
Br101      Br  0.31576256  0.99161370  0.26369380    -0.06300
Br102      Br  0.14507021  0.42516140  0.30933100    -0.03200
Br103      Br  0.33878359  0.12446230  0.24211216    -0.00400
Br104      Br  0.20918147  0.46364885  0.19610400    -0.04700
C105        C  0.28611463  0.06871354  0.06015085    -0.12100
C106        C  0.26707994  0.06854882  0.03221269     0.03300
C107        C  0.25437201  0.03954510  0.51109410    -0.12700
C108        C  0.25993408  0.01150369  0.01608983     0.18200
C109        C  0.28038323  0.01241721  0.04294143    -0.09700
C110        C  0.29301407  0.04066666  0.06479296    -0.02700
H111        H  0.23973592  0.03947196  0.48975116     0.04700
C112        C  0.24611553  0.48148253  0.49325100     0.20200
H113        H  0.30808590  0.04047518  0.08568934     0.09900
C114        C  0.26114969  0.48801964  0.46230969    -0.16000
C115        C  0.24752223  0.46130107  0.43887542     0.02900
C116        C  0.21806339  0.42720716  0.44623995    -0.11400
C117        C  0.20282232  0.42074692  0.47718654    -0.01400
C118        C  0.21672141  0.44750728  0.50069797    -0.06600
H119        H  0.28331060  0.51420838  0.95586994     0.05900
H120        H  0.18006241  0.39479007  0.48309809     0.09300
Br121      Br  0.29266557  0.47626881  0.05012785    -0.06300
Br122      Br  0.25995802  0.10684520  0.52084609    -0.03200
Br123      Br  0.26850607  0.47399100  0.39658973    -0.00400
Br124      Br  0.19390579  0.93686299  0.54219745    -0.04700
C125        C  0.28279367  0.21054235  0.05548249    -0.12100
C126        C  0.25157182  0.21273378  0.06172003     0.03300
C127        C  0.23858650  0.22657493  0.03831162    -0.12700
C128        C  0.25605945  0.23827980  0.00856920     0.19200
C129        C  0.28724437  0.23632404  0.00230787    -0.09700
C130        C  0.30045622  0.22266877  0.02574160    -0.02700
H131        H  0.21491846  0.22853973  0.04342186     0.04700
C132        C  0.24154251  0.25325935  0.48505995     0.20200
H133        H  0.32456742  0.22142873  0.02067414     0.09900
C134        C  0.24744548  0.28763228  0.48999256    -0.16000
C135        C  0.23446629  0.30298842  0.46807338     0.02900
C136        C  0.21540674  0.28381605  0.44028383    -0.11400
C137        C  0.20874536  0.24893457  0.43599028    -0.01400
C138        C  0.22143499  0.23358801  0.45816446    -0.06600
H139        H  0.26211475  0.30258477  0.01121629     0.05900
H140        H  0.19381299  0.23352961  0.41513838     0.09300
Br141      Br  0.31249390  0.25237308  0.46236869    -0.06300
Br142      Br  0.22691882  0.19989986  0.10246124    -0.03200
Br143      Br  0.24187537  0.34917349  0.47880817    -0.00400
Br144      Br  0.20993591  0.18539329  0.45129152    -0.04700
C145        C  0.21335967  0.28678530  0.30263414    -0.12100
C146        C  0.24764947  0.28958574  0.30483245     0.03300
C147        C  0.25899725  0.27522014  0.28060109    -0.12700
C148        C  0.23694254  0.25788290  0.25406203     0.18200
C149        C  0.20298328  0.25520187  0.25150398    -0.09700
C150        C  0.19142102  0.26957101  0.27569199    -0.02700
H151        H  0.28506068  0.27695858  0.28276767     0.04700
C152        C  0.24951947  0.24137808  0.23031621     0.20200
H153        H  0.16506402  0.26707670  0.27349487     0.09900
C154        C  0.24645428  0.20855072  0.23768518    -0.16000
C155        C  0.26071622  0.19327803  0.21713011     0.02900
C156        C  0.27862796  0.21119531  0.18855734    -0.11400
C157        C  0.28149612  0.24411727  0.18132178    -0.01400
C158        C  0.26710317  0.25918994  0.20188105    -0.06600
H159        H  0.23346226  0.19507464  0.25989766     0.05900
H160        H  0.29487080  0.25820514  0.15944593     0.09300
Br161      Br  0.17132378  0.23134594  0.21588384    -0.06300
Br162      Br  0.27947061  0.30998505  0.34115062    -0.03200
Br163      Br  0.25682880  0.14929760  0.23078067    -0.00400
Br164      Br  0.27281899  0.30449741  0.19062606    -0.04700
O165        O  0.11686074  0.33832428  0.84187304    -0.82000
C166        C  0.20254515  0.29936710  0.91545137     0.97400
O167        O  0.17594591  0.27866562  0.89787584    -0.71100
O168        O  0.11581604  0.27826013  0.90995349    -0.74700
Al169      Al  0.14294035  0.28565220  0.87186563     1.49000
C170        C  0.09907139  0.29369817  0.91846199     0.92600
O171        O  0.16823805  0.37931027  0.91898731    -0.80900
O172        O  0.21735211  0.38327485  0.83788232    -0.74400
Al173      Al  0.14414986  0.35725682  0.87995655     1.90100
O174        O  0.22262472  0.39449856  0.90293869    -0.73500
O175        O  0.22095840  0.32538191  0.84635107    -0.73400
O176        O  0.21839001  0.33263364  0.91144385    -0.79000
O177        O  0.16592952  0.28582632  0.83285820    -0.77200
O178        O  0.16733242  0.33307950  0.87555764    -1.13400
O179        O  0.10547820  0.28324506  0.84547384    -0.72600
C180        C  0.09968462  0.30629104  0.83298501     0.98200
C181        C  0.20197399  0.39866370  0.92166504     0.94600
Al182      Al  0.21558458  0.35681274  0.87474620     1.55600
O183        O  0.10603952  0.32288859  0.90606920    -0.77200
C184        C  0.19940201  0.30020466  0.82846952     0.98700
C185        C  0.20279153  0.40214713  0.83548941     0.93600
O186        O  0.17751710  0.39718430  0.85431413    -0.82500
O187        O  0.33432867  0.12033704  0.66852208    -0.82000
C188        C  0.29810000  0.19715502  0.58008893     0.97400
O189        O  0.27716904  0.17135199  0.59777580    -0.71100
O190        O  0.28302260  0.11468768  0.58838764    -0.74700
Al191      Al  0.28409055  0.14025866  0.62558839     1.49000
C192        C  0.29872154  0.09698956  0.58523318     0.92600
O193        O  0.38352201  0.16281148  0.59113601    -0.80900
O194        O  0.38170952  0.22004905  0.66147209    -0.74400
Al195      Al  0.35720209  0.14288969  0.62945308     1.90100
O196        O  0.39410905  0.21732629  0.59692842    -0.73500
O197        O  0.32077570  0.21795449  0.64834716    -0.73400
O198        O  0.33180466  0.21195165  0.58368064    -0.79000
O199        O  0.28038362  0.16351298  0.66267115    -0.77200
O200        O  0.33231421  0.16542551  0.62597132    -1.13400
O201        O  0.27899360  0.10287994  0.65342927    -0.72600
C202        C  0.30081545  0.10045853  0.67215814     0.98200
C203        C  0.40079776  0.19525301  0.58354749     0.94600
Al204      Al  0.35515840  0.21274247  0.62287468     1.55600
O205        O  0.32450893  0.10253111  0.60377074    -0.77200
C206        C  0.29429022  0.19674231  0.66573078     0.98700
C207        C  0.40035061  0.20623581  0.66901870     0.93600
O208        O  0.39514956  0.17812367  0.65543507    -0.82500
C209        C  0.07056699  0.27755986  0.94297649    -0.12100
C210        C  0.04064876  0.24294471  0.93920767     0.03300
C211        C  0.01289933  0.22937672  0.96208659    -0.12700
C212        C  0.01452624  0.24993873  0.98871905     0.18200
C213        C  0.04563858  0.28456744  0.49340173    -0.09700
C214        C  0.07230157  0.29795578  0.96976997    -0.02700
H215        H  0.48968865  0.20300120  0.95881879     0.04700
C216        C  0.48517051  0.23573264  0.51268886     0.20200
H217        H  0.09525340  0.32456182  0.97285635     0.09900
C218        C  0.48151256  0.20932733  0.53422495    -0.16000
C219        C  0.45398594  0.19543714  0.55730478     0.02900
C220        C  0.42940575  0.20796284  0.55887513    -0.11400
C221        C  0.43299298  0.23420270  0.53704063    -0.01400
C222        C  0.46040901  0.24788592  0.51389947    -0.06600
H223        H  0.00059930  0.20001715  0.53346006     0.05900
H224        H  0.41423384  0.24390773  0.53783053     0.09300
Br225      Br  0.05130654  0.31313790  0.53056227    -0.06300
Br226      Br  0.03509367  0.21430113  0.90210411    -0.03200
Br227      Br  0.45328803  0.16160256  0.58743444    -0.00400
Br228      Br  0.46170251  0.28184976  0.98334798    -0.04700
C229        C  0.42893321  0.22288800  0.69375701    -0.12100
C230        C  0.45179938  0.26018754  0.69605803     0.03300
C231        C  0.47994838  0.27448226  0.71858644    -0.12700
C232        C  0.48578634  0.25224293  0.73898270     0.18200
C233        C  0.46244826  0.21515186  0.73738573    -0.09700
C234        C  0.43465661  0.20076764  0.71459330    -0.02700
H235        H  0.99784711  0.30309169  0.71979844     0.04700
C236        C  0.01633256  0.26813454  0.76181027     0.20200
H237        H  0.41729950  0.17210768  0.71324093     0.09900
C238        C  0.01417995  0.28588767  0.78912946    -0.16000
C239        C  0.04173833  0.29945020  0.81219072     0.02900
C240        C  0.07183754  0.29510634  0.80802256    -0.11400
C241        C  0.07438437  0.27804468  0.78037135    -0.01400
C242        C  0.04713224  0.26504072  0.75704985    -0.06600
H243        H  0.49060125  0.28841160  0.79287558     0.05900
H244        H  0.09762943  0.27492067  0.77692243     0.09300
Br245      Br  0.46702400  0.18328424  0.76639127    -0.06300
Br246      Br  0.44796730  0.29290093  0.66760892    -0.03200
Br247      Br  0.03578839  0.32119689  0.85009554    -0.00400
Br248      Br  0.05332020  0.24378761  0.71891603    -0.04700
C249        C  0.21656394  0.43124081  0.81134396    -0.12100
C250        C  0.19596071  0.44637629  0.80046411     0.03300
C251        C  0.21082342  0.47432116  0.77823044    -0.12700
C252        C  0.24579168  0.48751314  0.76618030     0.18200
C253        C  0.26637772  0.47261434  0.77684778    -0.09700
C254        C  0.25172377  0.44473385  0.79915333    -0.02700
H255        H  0.19482706  0.48566451  0.76995988     0.04700
C256        C  0.25993567  0.01641991  0.74207693     0.20200
H257        H  0.26811638  0.43374270  0.80713923     0.09900
C258        C  0.28829729  0.05038508  0.75047019    -0.16000
C259        C  0.30196492  0.07835147  0.72819352     0.02900
C260        C  0.28676441  0.07251621  0.69706936    -0.11400
C261        C  0.25801186  0.03863631  0.68894408    -0.01400
C262        C  0.24480390  0.01061391  0.71101257    -0.06600
H263        H  0.29974361  0.05514260  0.77451426     0.05900
H264        H  0.24640791  0.03366060  0.66496553     0.09300
Br265      Br  0.31417258  0.98871550  0.76089984    -0.06300
Br266      Br  0.14688737  0.42958763  0.81328220    -0.03200
Br267      Br  0.33999466  0.12418965  0.74209811    -0.00400
Br268      Br  0.20732228  0.46447653  0.69710755    -0.04700
C269        C  0.28612970  0.06844631  0.56063277    -0.12100
C270        C  0.26725511  0.06819814  0.53256341     0.03300
C271        C  0.25402787  0.03993563  0.01068814    -0.12700
C272        C  0.26028623  0.01113520  0.51667150     0.18200
C273        C  0.28054672  0.01211607  0.54371033    -0.09700
C274        C  0.29298742  0.04040154  0.56551183    -0.02700
H275        H  0.23925136  0.03989488  0.98947188     0.04700
C276        C  0.24553468  0.48183936  0.99271479     0.20200
H277        H  0.30792905  0.04027547  0.58651369     0.09900
C278        C  0.26085385  0.48809381  0.96191687    -0.16000
C279        C  0.24727647  0.46122967  0.93863262     0.02900
C280        C  0.21757267  0.42727900  0.94602117    -0.11400
C281        C  0.20199930  0.42114595  0.97681088    -0.01400
C282        C  0.21586140  0.44805478  0.00017074    -0.06600
H283        H  0.28336337  0.51426258  0.45624841     0.05900
H284        H  0.17903824  0.39530917  0.98273741     0.09300
Br285      Br  0.29299647  0.47613075  0.55120698    -0.06300
Br286      Br  0.25970146  0.10721219  0.02075134    -0.03200
Br287      Br  0.26879067  0.47355200  0.89652249    -0.00400
Br288      Br  0.19277142  0.93787072  0.04152967    -0.04700
C289        C  0.28287296  0.21065347  0.55567081    -0.12100
C290        C  0.25165762  0.21283425  0.56199522     0.03300
C291        C  0.23851634  0.22654734  0.53859956    -0.12700
C292        C  0.25580263  0.23810967  0.50876418     0.19200
C293        C  0.28696891  0.23614111  0.50240919    -0.09700
C294        C  0.30036415  0.22265161  0.52584577    -0.02700
H295        H  0.21486397  0.22851370  0.54378941     0.04700
C296        C  0.24192981  0.25350867  0.98484674     0.20200
H297        H  0.32444471  0.22139886  0.52070229     0.09900
C298        C  0.24761327  0.28777901  0.98994333    -0.16000
C299        C  0.23467269  0.30316977  0.96803032     0.02900
C300        C  0.21577701  0.28407928  0.94015692    -0.11400
C301        C  0.20942036  0.24933876  0.93565570    -0.01400
C302        C  0.22215898  0.23399665  0.95776075    -0.06600
H303        H  0.26213196  0.30254389  0.51116235     0.05900
H304        H  0.19469415  0.23404127  0.91467525     0.09300
Br305      Br  0.31307078  0.25285291  0.96243124    -0.06300
Br306      Br  0.22719918  0.20011634  0.60283095    -0.03200
Br307      Br  0.24198160  0.34930478  0.97883044    -0.00400
Br308      Br  0.21122810  0.18603807  0.95047953    -0.04700
C309        C  0.21342677  0.28700389  0.80263388    -0.12100
C310        C  0.24740526  0.28919302  0.80514706     0.03300
C311        C  0.25885013  0.27503239  0.78081535    -0.12700
C312        C  0.23717177  0.25849815  0.75387423     0.18200
C313        C  0.20352943  0.25645898  0.75100536    -0.09700
C314        C  0.19187180  0.27061246  0.77530590    -0.02700
H315        H  0.28464601  0.27624438  0.78323076     0.04700
C316        C  0.24966931  0.24193995  0.73012014     0.20200
H317        H  0.16575069  0.26862227  0.77288656     0.09900
C318        C  0.24544719  0.20855168  0.73706325    -0.16000
C319        C  0.25960343  0.19310890  0.71659545     0.02900
C320        C  0.27865815  0.21146079  0.68855330    -0.11400
C321        C  0.28260285  0.24492737  0.68171223    -0.01400
C322        C  0.26825829  0.26013614  0.70216523    -0.06600
H323        H  0.23159732  0.19473261  0.75889010     0.05900
H324        H  0.29677851  0.25934777  0.66022400     0.09300
Br325      Br  0.17244489  0.23381081  0.71477408    -0.06300
Br326      Br  0.27850597  0.30835624  0.84206639    -0.03200
Br327      Br  0.25376244  0.14814841  0.72967085    -0.00400
Br328      Br  0.27532203  0.30608415  0.69139617    -0.04700
O329        O  0.11678189  0.83853095  0.34203299    -0.82000
C330        C  0.20233507  0.79918574  0.41547148     0.97400
O331        O  0.17572936  0.77855885  0.39785884    -0.71100
O332        O  0.11566047  0.77831255  0.40977491    -0.74700
Al333      Al  0.14287205  0.78572563  0.37174897     1.49000
C334        C  0.09921108  0.79395599  0.41854595     0.92600
O335        O  0.16861931  0.87958491  0.41898034    -0.80900
O336        O  0.21756501  0.88331166  0.33789714    -0.74400
Al337      Al  0.14434016  0.85747723  0.38001141     1.90100
O338        O  0.22293139  0.89453466  0.40294215    -0.73500
O339        O  0.22093592  0.82527451  0.34632158    -0.73400
O340        O  0.21832432  0.83246120  0.41143051    -0.79000
O341        O  0.16590907  0.78584979  0.33278154    -0.77200
O342        O  0.16739206  0.83316457  0.37552167    -1.13400
O343        O  0.10554008  0.78349109  0.34524960    -0.72600
C344        C  0.09968353  0.80657105  0.33293086     0.98200
C345        C  0.20236167  0.89876157  0.42171396     0.94600
Al346      Al  0.21566678  0.85676328  0.37473444     1.55600
O347        O  0.10634662  0.82326177  0.40630803    -0.77200
C348        C  0.19937528  0.80012061  0.32842654     0.98700
C349        C  0.20293601  0.90211152  0.33537846     0.93600
O350        O  0.17766572  0.89725790  0.35417685    -0.82500
O351        O  0.33419259  0.62025862  0.16834093    -0.82000
C352        C  0.29795068  0.69702712  0.07993561     0.97400
O353        O  0.27701198  0.67132618  0.09771737    -0.71100
O354        O  0.28298001  0.61478122  0.08813811    -0.74700
Al355      Al  0.28398394  0.64016484  0.12541691     1.49000
C356        C  0.29867928  0.59709579  0.08490631     0.92600
O357        O  0.38338416  0.66273523  0.09099534    -0.80900
O358        O  0.38158494  0.72006086  0.16123615    -0.74400
Al359      Al  0.35708374  0.64283133  0.12928440     1.90100
O360        O  0.39395380  0.71725144  0.09669521    -0.73500
O361        O  0.32056666  0.71780924  0.14813879    -0.73400
O362        O  0.33164732  0.71174176  0.08346480    -0.79000
O363        O  0.28033841  0.66332151  0.16259296    -0.77200
O364        O  0.33219811  0.66534657  0.12579696    -1.13400
O365        O  0.27886712  0.60264766  0.15311136    -0.72600
C366        C  0.30068307  0.60026818  0.17187906     0.98200
C367        C  0.40060251  0.69514490  0.08332712     0.94600
Al368      Al  0.35500079  0.71264906  0.12265538     1.55600
O369        O  0.32438415  0.60249035  0.10350956    -0.77200
C370        C  0.29420655  0.69655446  0.16563093     0.98700
C371        C  0.40025819  0.70629395  0.16881363     0.93600
O372        O  0.39502353  0.67812091  0.15530531    -0.82500
C373        C  0.07085855  0.77790782  0.44320623    -0.12100
C374        C  0.04070322  0.74344839  0.43940012     0.03300
C375        C  0.01312950  0.72994873  0.46244212    -0.12700
C376        C  0.01515385  0.75042019  0.48928286     0.18200
C377        C  0.04477768  0.78423709  0.99279783    -0.09700
C378        C  0.07300707  0.79821660  0.47021366    -0.02700
H379        H  0.48972567  0.70370373  0.45913162     0.04700
C380        C  0.48447810  0.73515649  0.01205065     0.20200
H381        H  0.09614558  0.82470269  0.47333161     0.09900
C382        C  0.48098999  0.70892053  0.03371487    -0.16000
C383        C  0.45364758  0.69521977  0.05696115     0.02900
C384        C  0.42906293  0.70773526  0.05854444    -0.11400
C385        C  0.43243752  0.73375775  0.03655561    -0.01400
C386        C  0.45969092  0.74728231  0.01326873    -0.06600
H387        H  0.00012493  0.69966571  0.03297176     0.05900
H388        H  0.41364779  0.74344020  0.03735868     0.09300
Br389      Br  0.04996069  0.81291267  0.02975083    -0.06300
Br390      Br  0.03457392  0.71496468  0.40203163    -0.03200
Br391      Br  0.45327200  0.66174819  0.08734499    -0.00400
Br392      Br  0.46261355  0.78262755  0.48408976    -0.04700
C393        C  0.42892436  0.72308712  0.19349350    -0.12100
C394        C  0.45157758  0.76042186  0.19587557     0.03300
C395        C  0.47981303  0.77483559  0.21833605    -0.12700
C396        C  0.48599254  0.75269251  0.23856508     0.18200
C397        C  0.46286150  0.71556201  0.23687332    -0.09700
C398        C  0.43494491  0.70106795  0.21419674    -0.02700
H399        H  0.99751341  0.80346415  0.21961737     0.04700
C400        C  0.01658779  0.76870850  0.26139178     0.20200
H401        H  0.41771916  0.67239505  0.21283624     0.09900
C402        C  0.01452109  0.78669676  0.28857764    -0.16000
C403        C  0.04199594  0.80019148  0.31173803     0.02900
C404        C  0.07193704  0.79552804  0.30783264    -0.11400
C405        C  0.07444460  0.77831592  0.28026695    -0.01400
C406        C  0.04730024  0.76541130  0.25683374    -0.06600
H407        H  0.49104521  0.78941918  0.29217023     0.05900
H408        H  0.09758786  0.77499100  0.27696796     0.09300
Br409      Br  0.46785143  0.68373145  0.26559916    -0.06300
Br410      Br  0.44733213  0.79306897  0.16765048    -0.03200
Br411      Br  0.03607845  0.82224281  0.34943517    -0.00400
Br412      Br  0.05353330  0.74401555  0.21881955    -0.04700
C413        C  0.21664170  0.93105127  0.31112666    -0.12100
C414        C  0.19521619  0.94463709  0.29882394     0.03300
C415        C  0.21001516  0.97268429  0.27668607    -0.12700
C416        C  0.24570877  0.98733389  0.26597459     0.18200
C417        C  0.26704536  0.97379423  0.27795444    -0.09700
C418        C  0.25247906  0.94593346  0.30028859    -0.02700
H419        H  0.19339270  0.98287989  0.26737195     0.04700
C420        C  0.25982669  0.51625122  0.24183816     0.20200
H421        H  0.26943284  0.93602696  0.30936007     0.09900
C422        C  0.28755179  0.55047712  0.25044478    -0.16000
C423        C  0.30129487  0.57838729  0.22810314     0.02900
C424        C  0.28665562  0.57229367  0.19674855    -0.11400
C425        C  0.25854619  0.53816964  0.18837598    -0.01400
C426        C  0.24540635  0.51015712  0.21046075    -0.06600
H427        H  0.29851282  0.55546287  0.27468550     0.05900
H428        H  0.24746515  0.53300612  0.16418810     0.09300
Br429      Br  0.31576231  0.49161256  0.26369377    -0.06300
Br430      Br  0.14506956  0.92515969  0.30932934    -0.03200
Br431      Br  0.33878330  0.62446244  0.24211334    -0.00400
Br432      Br  0.20918036  0.96364892  0.19610375    -0.04700
C433        C  0.28611367  0.56871365  0.06015118    -0.12100
C434        C  0.26708158  0.56855119  0.03221219     0.03300
C435        C  0.25437049  0.53954287  0.51109601    -0.12700
C436        C  0.25993202  0.51150451  0.01608953     0.18200
C437        C  0.28037946  0.51241623  0.04294163    -0.09700
C438        C  0.29301136  0.54066527  0.06479450    -0.02700
H439        H  0.23973284  0.53946865  0.48975376     0.04700
C440        C  0.24611452  0.98148313  0.49324990     0.20200
H441        H  0.30807853  0.54047247  0.08568693     0.09900
C442        C  0.26115281  0.98802190  0.46230869    -0.16000
C443        C  0.24752332  0.96130029  0.43887529     0.02900
C444        C  0.21806314  0.92720716  0.44623937    -0.11400
C445        C  0.20282121  0.92074921  0.47718497    -0.01400
C446        C  0.21671891  0.94750886  0.50069632    -0.06600
H447        H  0.28331506  0.01420320  0.95587295     0.05900
H448        H  0.18005505  0.89478726  0.48309737     0.09300
Br449      Br  0.29267112  0.97627105  0.05012739    -0.06300
Br450      Br  0.25995426  0.60684184  0.52084760    -0.03200
Br451      Br  0.26850994  0.97398945  0.39659051    -0.00400
Br452      Br  0.19391062  0.43685930  0.54220032    -0.04700
C453        C  0.28279281  0.71054059  0.05548266    -0.12100
C454        C  0.25157141  0.71273257  0.06172043     0.03300
C455        C  0.23858513  0.72657340  0.03831204    -0.12700
C456        C  0.25605803  0.73827720  0.00856912     0.19200
C457        C  0.28724239  0.73632073  0.00230747    -0.09700
C458        C  0.30045493  0.72266594  0.02574129    -0.02700
H459        H  0.21492068  0.72853847  0.04342169     0.04700
C460        C  0.24154442  0.75325772  0.48505632     0.20200
H461        H  0.32456398  0.72142550  0.02067391     0.09900
C462        C  0.24744761  0.78763064  0.48998942    -0.16000
C463        C  0.23446831  0.80298718  0.46807084     0.02900
C464        C  0.21540813  0.78381513  0.44028133    -0.11400
C465        C  0.20874667  0.74893372  0.43598737    -0.01400
C466        C  0.22143642  0.73358669  0.45816086    -0.06600
H467        H  0.26211479  0.80258311  0.01121706     0.05900
H468        H  0.19381344  0.73352852  0.41513478     0.09300
Br469      Br  0.31249475  0.75236917  0.46236513    -0.06300
Br470      Br  0.22691900  0.69989970  0.10246201    -0.03200
Br471      Br  0.24187802  0.84917228  0.47880647    -0.00400
Br472      Br  0.20993693  0.68539201  0.45128721    -0.04700
C473        C  0.21336129  0.78678759  0.30263173    -0.12100
C474        C  0.24765203  0.78959011  0.30482870     0.03300
C475        C  0.25899983  0.77522476  0.28059703    -0.12700
C476        C  0.23694408  0.75788576  0.25405893     0.18200
C477        C  0.20298407  0.75520313  0.25150197    -0.09700
C478        C  0.19142134  0.76957195  0.27569028    -0.02700
H479        H  0.28506335  0.77696437  0.28276273     0.04700
C480        C  0.24952068  0.74138012  0.23031368     0.20200
H481        H  0.16506624  0.76707645  0.27349434     0.09900
C482        C  0.24645996  0.70855532  0.23768581    -0.16000
C483        C  0.26072228  0.69328244  0.21713156     0.02900
C484        C  0.27863000  0.71119697  0.18855653    -0.11400
C485        C  0.28149346  0.74411599  0.18131843    -0.01400
C486        C  0.26710033  0.75918923  0.20187618    -0.06600
H487        H  0.23347126  0.69508157  0.25989976     0.05900
H488        H  0.29486709  0.75820367  0.15943757     0.09300
Br489      Br  0.17132311  0.73134495  0.21588317    -0.06300
Br490      Br  0.27947504  0.80999184  0.34114536    -0.03200
Br491      Br  0.25684161  0.64930612  0.23078596    -0.00400
Br492      Br  0.27281002  0.80449311  0.19061694    -0.04700
O493        O  0.11686261  0.83832516  0.84187290    -0.82000
C494        C  0.20254463  0.79936495  0.91545106     0.97400
O495        O  0.17594530  0.77866385  0.89787544    -0.71100
O496        O  0.11581574  0.77825905  0.90995206    -0.74700
Al497      Al  0.14294076  0.78565145  0.87186469     1.49000
C498        C  0.09907159  0.79369748  0.91846084     0.92600
O499        O  0.16823997  0.87930961  0.91898778    -0.80900
O500        O  0.21735383  0.88327402  0.83788253    -0.74400
Al501      Al  0.14415164  0.85725680  0.87995668     1.90100
O502        O  0.22262643  0.89449702  0.90293908    -0.73500
O503        O  0.22095932  0.82538062  0.84635099    -0.73400
O504        O  0.21839018  0.83263158  0.91144363    -0.79000
O505        O  0.16593043  0.78582571  0.83285759    -0.77200
O506        O  0.16733348  0.83307868  0.87555752    -1.13400
O507        O  0.10547959  0.78324564  0.84547230    -0.72600
C508        C  0.09968639  0.80629216  0.83298406     0.98200
C509        C  0.20197597  0.89866248  0.92166561     0.94600
Al510      Al  0.21558572  0.85681139  0.87474625     1.55600
O511        O  0.10604087  0.82288867  0.90606892    -0.77200
C512        C  0.19940288  0.80020377  0.82846912     0.98700
C513        C  0.20279378  0.90214674  0.83548970     0.93600
O514        O  0.17751955  0.89718426  0.85431458    -0.82500
O515        O  0.33432826  0.62033720  0.66852257    -0.82000
C516        C  0.29810148  0.69715484  0.58008724     0.97400
O517        O  0.27717029  0.67135219  0.59777432    -0.71100
O518        O  0.28302384  0.61468784  0.58838718    -0.74700
Al519      Al  0.28409129  0.64025897  0.62558742     1.49000
C520        C  0.29872255  0.59698955  0.58523319     0.92600
O521        O  0.38352335  0.66281111  0.59113685    -0.80900
O522        O  0.38171038  0.72004963  0.66147157    -0.74400
Al523      Al  0.35720259  0.64288961  0.62945364     1.90100
O524        O  0.39411008  0.71732589  0.59692806    -0.73500
O525        O  0.32077660  0.71795501  0.64834593    -0.73400
O526        O  0.33180613  0.71195166  0.58367944    -0.79000
O527        O  0.28038405  0.66351343  0.66266972    -0.77200
O528        O  0.33231496  0.66542564  0.62597089    -1.13400
O529        O  0.27899358  0.60288031  0.65342858    -0.72600
C530        C  0.30081491  0.60045888  0.67215808     0.98200
C531        C  0.40079898  0.69525240  0.58354773     0.94600
Al532      Al  0.35515944  0.71274262  0.62287390     1.55600
O533        O  0.32450967  0.60253102  0.60377116    -0.77200
C534        C  0.29429086  0.69674274  0.66572940     0.98700
C535        C  0.40035104  0.70623616  0.66901901     0.93600
O536        O  0.39514971  0.67812359  0.65543604    -0.82500
C537        C  0.07056684  0.77755923  0.94297505    -0.12100
C538        C  0.04064944  0.74294335  0.93920671     0.03300
C539        C  0.01289891  0.72937412  0.96208523    -0.12700
C540        C  0.01452562  0.74993744  0.98871721     0.18200
C541        C  0.04563893  0.78456496  0.49340084    -0.09700
C542        C  0.07229913  0.79795415  0.96976776    -0.02700
H543        H  0.48969684  0.70300697  0.95881929     0.04700
C544        C  0.48517104  0.73573115  0.51268829     0.20200
H545        H  0.09525643  0.82456783  0.97285468     0.09900
C546        C  0.48151279  0.70932499  0.53422386    -0.16000
C547        C  0.45398610  0.69543528  0.55730390     0.02900
C548        C  0.42940651  0.70796190  0.55887490    -0.11400
C549        C  0.43299580  0.73420145  0.53704069    -0.01400
C550        C  0.46040995  0.74788506  0.51389934    -0.06600
H551        H  0.00059751  0.70001356  0.53345826     0.05900
H552        H  0.41422926  0.74391096  0.53783127     0.09300
Br553      Br  0.05130680  0.81313516  0.53056160    -0.06300
Br554      Br  0.03509556  0.71429895  0.90210401    -0.03200
Br555      Br  0.45328741  0.66159949  0.58743255    -0.00400
Br556      Br  0.46170045  0.78184618  0.98334532    -0.04700
C557        C  0.42893371  0.72288882  0.69375728    -0.12100
C558        C  0.45180131  0.76018853  0.69605644     0.03300
C559        C  0.47994964  0.77448233  0.71858456    -0.12700
C560        C  0.48578739  0.75224487  0.73898245     0.18200
C561        C  0.46244784  0.71515367  0.73738731    -0.09700
C562        C  0.43465608  0.70076923  0.71459523    -0.02700
H563        H  0.99785431  0.80309930  0.71979514     0.04700
C564        C  0.01633429  0.76813681  0.76180927     0.20200
H565        H  0.41729718  0.67210804  0.71324428     0.09900
C566        C  0.01418304  0.78589202  0.78912755    -0.16000
C567        C  0.04174175  0.79945444  0.81218867     0.02900
C568        C  0.07183966  0.79510844  0.80802131    -0.11400
C569        C  0.07438570  0.77804494  0.78037080    -0.01400
C570        C  0.04713304  0.76504136  0.75704941    -0.06600
H571        H  0.49060410  0.78841671  0.79287378     0.05900
H572        H  0.09762771  0.77491994  0.77692261     0.09300
Br573      Br  0.46702240  0.68328702  0.76639506    -0.06300
Br574      Br  0.44797073  0.79290081  0.66760481    -0.03200
Br575      Br  0.03579354  0.82120415  0.85009219    -0.00400
Br576      Br  0.05331962  0.74378606  0.71891632    -0.04700
C577        C  0.21656603  0.93124017  0.81134377    -0.12100
C578        C  0.19596424  0.94637803  0.80046597     0.03300
C579        C  0.21082727  0.97432218  0.77823209    -0.12700
C580        C  0.24579378  0.98751169  0.76617937     0.18200
C581        C  0.26637832  0.97261034  0.77684440    -0.09700
C582        C  0.25172507  0.94472989  0.79915075    -0.02700
H583        H  0.19483016  0.98566893  0.76996231     0.04700
C584        C  0.25993342  0.51642131  0.74207781     0.20200
H585        H  0.26811324  0.93373917  0.80713339     0.09900
C586        C  0.28829340  0.55038730  0.75047185    -0.16000
C587        C  0.30196145  0.57835328  0.72819467     0.02900
C588        C  0.28676316  0.57251687  0.69706958    -0.11400
C589        C  0.25801204  0.53863627  0.68894347    -0.01400
C590        C  0.24480372  0.51061424  0.71101254    -0.06600
H591        H  0.29973782  0.55514566  0.77451589     0.05900
H592        H  0.24641036  0.53366013  0.66496519     0.09300
Br593      Br  0.31417441  0.48872387  0.76090726    -0.06300
Br594      Br  0.14689267  0.92959329  0.81328733    -0.03200
Br595      Br  0.33998872  0.62419243  0.74209976    -0.00400
Br596      Br  0.20731980  0.96447710  0.69710834    -0.04700
C597        C  0.28613056  0.56844588  0.56063327    -0.12100
C598        C  0.26725394  0.56819637  0.53256469     0.03300
C599        C  0.25402840  0.53993813  0.01068729    -0.12700
C600        C  0.26028659  0.51113410  0.51667280     0.18200
C601        C  0.28054917  0.51211643  0.54371058    -0.09700
C602        C  0.29298936  0.54040223  0.56551060    -0.02700
H603        H  0.23925433  0.53989909  0.98947102     0.04700
C604        C  0.24553732  0.98183816  0.99271551     0.20200
H605        H  0.30793639  0.54027716  0.58651732     0.09900
C606        C  0.26085929  0.98809218  0.96191847    -0.16000
C607        C  0.24728153  0.96122734  0.93863448     0.02900
C608        C  0.21757560  0.92727795  0.94602186    -0.11400
C609        C  0.20199844  0.92114356  0.97681144    -0.01400
C610        C  0.21586275  0.94805472  0.00017082    -0.06600
H611        H  0.28335564  0.01425016  0.45625107     0.05900
H612        H  0.17904662  0.89531964  0.98273460     0.09300
Br613      Br  0.29299114  0.97612850  0.55120818    -0.06300
Br614      Br  0.25970833  0.60721761  0.02075008    -0.03200
Br615      Br  0.26879976  0.97354847  0.89652583    -0.00400
Br616      Br  0.19277175  0.43786977  0.04153040    -0.04700
C617        C  0.28287472  0.71065286  0.55566845    -0.12100
C618        C  0.25165937  0.71283396  0.56199247     0.03300
C619        C  0.23851834  0.72654617  0.53859611    -0.12700
C620        C  0.25580395  0.73810745  0.50876064     0.19200
C621        C  0.28697017  0.73613846  0.50240592    -0.09700
C622        C  0.30036468  0.72264967  0.52584321    -0.02700
H623        H  0.21486404  0.72851332  0.54378609     0.04700
C624        C  0.24192827  0.75350604  0.98484683     0.20200
H625        H  0.32444919  0.72139661  0.52069910     0.09900
C626        C  0.24761204  0.78777637  0.98994308    -0.16000
C627        C  0.23467173  0.80316732  0.96803025     0.02900
C628        C  0.21577574  0.78407673  0.94015694    -0.11400
C629        C  0.20941827  0.74933572  0.93565555    -0.01400
C630        C  0.22215689  0.73399380  0.95776115    -0.06600
H631        H  0.26213455  0.80254215  0.51115927     0.05900
H632        H  0.19469285  0.73403937  0.91467722     0.09300
Br633      Br  0.31306783  0.75284801  0.96243020    -0.06300
Br634      Br  0.22720179  0.70011825  0.60282857    -0.03200
Br635      Br  0.24198096  0.84930254  0.97883023    -0.00400
Br636      Br  0.21122481  0.68603472  0.95048047    -0.04700
C637        C  0.21342787  0.78700338  0.80263335    -0.12100
C638        C  0.24740673  0.78919330  0.80514580     0.03300
C639        C  0.25885067  0.77503256  0.78081385    -0.12700
C640        C  0.23717236  0.75849784  0.75387316     0.18200
C641        C  0.20352986  0.75645816  0.75100486    -0.09700
C642        C  0.19187085  0.77061142  0.77530553    -0.02700
H643        H  0.28464992  0.77624525  0.78322905     0.04700
C644        C  0.24966957  0.74193962  0.73011899     0.20200
H645        H  0.16575759  0.76862132  0.77288748     0.09900
C646        C  0.24544824  0.70855207  0.73706105    -0.16000
C647        C  0.25960413  0.69310905  0.71659416     0.02900
C648        C  0.27865877  0.71146121  0.68855177    -0.11400
C649        C  0.28260244  0.74492701  0.68171161    -0.01400
C650        C  0.26825836  0.76013605  0.70216390    -0.06600
H651        H  0.23159566  0.69472999  0.75889292     0.05900
H652        H  0.29678101  0.75935064  0.66021900     0.09300
Br653      Br  0.17244477  0.73381005  0.71477384    -0.06300
Br654      Br  0.27850869  0.80835819  0.84206404    -0.03200
Br655      Br  0.25376378  0.64814880  0.72966945    -0.00400
Br656      Br  0.27532154  0.80608392  0.69139516    -0.04700
O657        O  0.61678128  0.33853093  0.34203406    -0.82000
C658        C  0.70233449  0.29918641  0.41547295     0.97400
O659        O  0.67572881  0.27855924  0.39786044    -0.71100
O660        O  0.61566011  0.27831305  0.40977653    -0.74700
Al661      Al  0.64287133  0.28572569  0.37175051     1.49000
C662        C  0.59921067  0.29395648  0.41854728     0.92600
O663        O  0.66861890  0.37958480  0.41898152    -0.80900
O664        O  0.71756413  0.38331141  0.33789781    -0.74400
Al665      Al  0.64433968  0.35747730  0.38001253     1.90100
O666        O  0.72293095  0.39453500  0.40294271    -0.73500
O667        O  0.72093514  0.32527422  0.34632268    -0.73400
O668        O  0.71832379  0.33246179  0.41143152    -0.79000
O669        O  0.66590803  0.28584946  0.33278306    -0.77200
O670        O  0.66739147  0.33316465  0.37552281    -1.13400
O671        O  0.60553939  0.28349106  0.34525126    -0.72600
C672        C  0.59968261  0.30657083  0.33293241     0.98200
C673        C  0.70236126  0.39876142  0.42171494     0.94600
Al674      Al  0.71566614  0.35676334  0.37473528     1.55600
O675        O  0.60634612  0.32326206  0.40630905    -0.77200
C676        C  0.69937435  0.30012011  0.32842801     0.98700
C677        C  0.70293545  0.40211166  0.33537949     0.93600
O678        O  0.67766537  0.39725808  0.35417800    -0.82500
O679        O  0.83419118  0.12025883  0.16834075    -0.82000
C680        C  0.79795110  0.19702865  0.07993516     0.97400
O681        O  0.77701199  0.17132664  0.09771569    -0.71100
O682        O  0.78298035  0.11478171  0.08813686    -0.74700
Al683      Al  0.78398310  0.14016498  0.12541559     1.49000
C684        C  0.79867957  0.09709621  0.08490562     0.92600
O685        O  0.88338400  0.16273637  0.09099605    -0.80900
O686        O  0.88158314  0.22006054  0.16123770    -0.74400
Al687      Al  0.85708300  0.14283190  0.12928466     1.90100
O688        O  0.89395374  0.21725264  0.09669666    -0.73500
O689        O  0.82056521  0.21780912  0.14813951    -0.73400
O690        O  0.83164755  0.21174362  0.08346551    -0.79000
O691        O  0.78033587  0.16332097  0.16259141    -0.77200
O692        O  0.83219728  0.16534708  0.12579692    -1.13400
O693        O  0.77886578  0.10264767  0.15311030    -0.72600
C694        C  0.80068153  0.10026837  0.17187850     0.98200
C695        C  0.90060259  0.19514629  0.08332836     0.94600
Al696      Al  0.85499998  0.21264967  0.12265637     1.55600
O697        O  0.82438412  0.10249100  0.10350935    -0.77200
C698        C  0.79420411  0.19655378  0.16563047     0.98700
C699        C  0.90025651  0.20629379  0.16881507     0.93600
O700        O  0.89502237  0.17812117  0.15530614    -0.82500
C701        C  0.57085836  0.27790870  0.44320768    -0.12100
C702        C  0.54070301  0.24344909  0.43940187     0.03300
C703        C  0.51312970  0.22995000  0.46244403    -0.12700
C704        C  0.51515380  0.25042168  0.48928429     0.18200
C705        C  0.54477974  0.28423852  0.99280031    -0.09700
C706        C  0.57300637  0.29821763  0.47021456    -0.02700
H707        H  0.98972527  0.20370863  0.45913140     0.04700
C708        C  0.98447858  0.23515813  0.01205220     0.20200
H709        H  0.59614689  0.32470604  0.47333260     0.09900
C710        C  0.98099005  0.20892148  0.03371596    -0.16000
C711        C  0.95364740  0.19522092  0.05696224     0.02900
C712        C  0.92906343  0.20773701  0.05854601    -0.11400
C713        C  0.93243779  0.23376075  0.03655781    -0.01400
C714        C  0.95969211  0.24728466  0.01327084    -0.06600
H715        H  0.50012333  0.19966872  0.03297366     0.05900
H716        H  0.91365320  0.24344119  0.03736087     0.09300
Br717      Br  0.54996372  0.31291341  0.02975400    -0.06300
Br718      Br  0.53457365  0.21496484  0.40203381    -0.03200
Br719      Br  0.95327104  0.16174827  0.08734531    -0.00400
Br720      Br  0.96261250  0.28263037  0.48409047    -0.04700
C721        C  0.92892219  0.22308635  0.19349536    -0.12100
C722        C  0.95157494  0.26042124  0.19587832     0.03300
C723        C  0.97981031  0.27483508  0.21833915    -0.12700
C724        C  0.98598995  0.25269132  0.23856745     0.18200
C725        C  0.96285917  0.21556069  0.23687489    -0.09700
C726        C  0.93494421  0.20106907  0.21419811    -0.02700
H727        H  0.49751047  0.30346735  0.21962416     0.04700
C728        C  0.51658572  0.26870679  0.26139447     0.20200
H729        H  0.91771224  0.17238533  0.21283653     0.09900
C730        C  0.51451852  0.28669436  0.28858088    -0.16000
C731        C  0.54199401  0.30018947  0.31174087     0.02900
C732        C  0.57193577  0.29552740  0.30783450    -0.11400
C733        C  0.57444343  0.27831583  0.28026845    -0.01400
C734        C  0.54729867  0.26541057  0.25683570    -0.06600
H735        H  0.99103593  0.28941783  0.29217446     0.05900
H736        H  0.59758745  0.27499148  0.27696880     0.09300
Br737      Br  0.96784944  0.18372997  0.26560019    -0.06300
Br738      Br  0.94732940  0.29306897  0.16765410    -0.03200
Br739      Br  0.53607615  0.32223951  0.34943872    -0.00400
Br740      Br  0.55353209  0.24401580  0.21882103    -0.04700
C741        C  0.71664149  0.43105166  0.31112798    -0.12100
C742        C  0.69521684  0.44463935  0.29882681     0.03300
C743        C  0.71001576  0.47268667  0.27668883    -0.12700
C744        C  0.74570893  0.48733456  0.26597620     0.18200
C745        C  0.76704479  0.47379335  0.27795467    -0.09700
C746        C  0.75247723  0.44593308  0.30028811    -0.02700
H747        H  0.69339544  0.48288260  0.26737652     0.04700
C748        C  0.75982564  0.01625215  0.24183851     0.20200
H749        H  0.76943583  0.43602206  0.30936123     0.09900
C750        C  0.78755141  0.05047802  0.25044476    -0.16000
C751        C  0.80129407  0.07838793  0.22810260     0.02900
C752        C  0.78665390  0.07229418  0.19674837    -0.11400
C753        C  0.75854372  0.03817023  0.18837624    -0.01400
C754        C  0.74540423  0.01015802  0.21046152    -0.06600
H755        H  0.79851268  0.05546366  0.27468414     0.05900
H756        H  0.74746217  0.03300676  0.16418964     0.09300
Br757      Br  0.81576175  0.99161369  0.26369333    -0.06300
Br758      Br  0.64507120  0.42516489  0.30933459    -0.03200
Br759      Br  0.83878338  0.12446295  0.24211219    -0.00400
Br760      Br  0.70917936  0.46364987  0.19610578    -0.04700
C761        C  0.78611459  0.06871368  0.06015075    -0.12100
C762        C  0.76707896  0.06854825  0.03221286     0.03300
C763        C  0.75437069  0.03954442  0.51109480    -0.12700
C764        C  0.75993465  0.01150397  0.01608959     0.18200
C765        C  0.78038486  0.01241822  0.04294079    -0.09700
C766        C  0.79301583  0.04066760  0.06479298    -0.02700
H767        H  0.73973391  0.03947079  0.48975205     0.04700
C768        C  0.74611499  0.48148181  0.49325171     0.20200
H769        H  0.80808592  0.04047660  0.08568588     0.09900
C770        C  0.76115001  0.48802122  0.46230959    -0.16000
C771        C  0.74752082  0.46130070  0.43887575     0.02900
C772        C  0.71806287  0.42720652  0.44624058    -0.11400
C773        C  0.70282329  0.42074676  0.47718735    -0.01400
C774        C  0.71672182  0.44750632  0.50069907    -0.06600
H775        H  0.78330670  0.51420470  0.95587108     0.05900
H776        H  0.68006054  0.39478549  0.48310004     0.09300
Br777      Br  0.79266863  0.47627086  0.05012692    -0.06300
Br778      Br  0.75995536  0.10684389  0.52084683    -0.03200
Br779      Br  0.76850350  0.47399124  0.39658955    -0.00400
Br780      Br  0.69390728  0.93686200  0.54219860    -0.04700
C781        C  0.78279403  0.21054321  0.05548247    -0.12100
C782        C  0.75157258  0.21273508  0.06172023     0.03300
C783        C  0.73858670  0.22657676  0.03831218    -0.12700
C784        C  0.75606046  0.23828164  0.00856960     0.19200
C785        C  0.78724506  0.23632558  0.00230810    -0.09700
C786        C  0.80045676  0.22266978  0.02574161    -0.02700
H787        H  0.71492297  0.22854151  0.04342165     0.04700
C788        C  0.74154240  0.25325946  0.48505993     0.20200
H789        H  0.82456703  0.22142956  0.02067420     0.09900
C790        C  0.74744643  0.28763332  0.48999345    -0.16000
C791        C  0.73446657  0.30298863  0.46807300     0.02900
C792        C  0.71540686  0.28381616  0.44028366    -0.11400
C793        C  0.70874528  0.24893456  0.43599031    -0.01400
C794        C  0.72143462  0.23358793  0.45816473    -0.06600
H795        H  0.76211751  0.30258765  0.01121636     0.05900
H796        H  0.69381218  0.23352903  0.41513829     0.09300
Br797      Br  0.81249340  0.25237262  0.46236852    -0.06300
Br798      Br  0.72691962  0.19990117  0.10246148    -0.03200
Br799      Br  0.74187600  0.34917396  0.47880770    -0.00400
Br800      Br  0.70993494  0.18539298  0.45129242    -0.04700
C801        C  0.71335979  0.28678644  0.30263340    -0.12100
C802        C  0.74765002  0.28958748  0.30483111     0.03300
C803        C  0.75899762  0.27522200  0.28059949    -0.12700
C804        C  0.73694237  0.25788421  0.25406085     0.18200
C805        C  0.70298271  0.25520271  0.25150333    -0.09700
C806        C  0.69142257  0.26957201  0.27569173    -0.02700
H807        H  0.78506069  0.27696056  0.28276562     0.04700
C808        C  0.74951899  0.24137900  0.23031515     0.20200
H809        H  0.66505593  0.26707646  0.27349431     0.09900
C810        C  0.74645283  0.20855150  0.23768278    -0.16000
C811        C  0.76071403  0.19327798  0.21712882     0.02900
C812        C  0.77862739  0.21119591  0.18855644    -0.11400
C813        C  0.78149586  0.24411744  0.18132265    -0.01400
C814        C  0.76710389  0.25919125  0.20188024    -0.06600
H815        H  0.73345679  0.19507189  0.25989950     0.05900
H816        H  0.79487625  0.25821052  0.15943971     0.09300
Br817      Br  0.67132299  0.23134645  0.21588357    -0.06300
Br818      Br  0.77947185  0.30998738  0.34114877    -0.03200
Br819      Br  0.75682441  0.14929646  0.23077881    -0.00400
Br820      Br  0.77282125  0.30449939  0.19062580    -0.04700
O821        O  0.61686085  0.33832474  0.84187326    -0.82000
C822        C  0.70254572  0.29936817  0.91545149     0.97400
O823        O  0.67594636  0.27866651  0.89787623    -0.71100
O824        O  0.61581655  0.27826088  0.90995374    -0.74700
Al825      Al  0.64294071  0.28565281  0.87186591     1.49000
C826        C  0.59907180  0.29369876  0.91846220     0.92600
O827        O  0.66823835  0.37931082  0.91898751    -0.80900
O828        O  0.71735207  0.38327550  0.83788213    -0.74400
Al829      Al  0.64415000  0.35725741  0.87995675     1.90100
O830        O  0.72262499  0.39449931  0.90293845    -0.73500
O831        O  0.72095873  0.32538281  0.84635090    -0.73400
O832        O  0.71839069  0.33263476  0.91144364    -0.79000
O833        O  0.66592984  0.28582667  0.83285856    -0.77200
O834        O  0.66733268  0.33308010  0.87555776    -1.13400
O835        O  0.60547859  0.28324555  0.84547406    -0.72600
C836        C  0.59968480  0.30629144  0.83298528     0.98200
C837        C  0.70197427  0.39866425  0.92166505     0.94600
Al838      Al  0.71558489  0.35681357  0.87474600     1.55600
O839        O  0.60603979  0.32288918  0.90606938    -0.77200
C840        C  0.69940234  0.30020515  0.82846975     0.98700
C841        C  0.70279145  0.40214784  0.83548950     0.93600
O842        O  0.67751710  0.39718492  0.85431434    -0.82500
O843        O  0.83432852  0.12033730  0.66852190    -0.82000
C844        C  0.79809995  0.19715546  0.58008903     0.97400
O845        O  0.77716895  0.17135243  0.59777588    -0.71100
O846        O  0.78302243  0.11468806  0.58838755    -0.74700
Al847      Al  0.78409042  0.14025901  0.62558835     1.49000
C848        C  0.79872136  0.09698995  0.58523300     0.92600
O849        O  0.88352183  0.16281202  0.59113582    -0.80900
O850        O  0.88170953  0.22004935  0.66147206    -0.74400
Al851      Al  0.85720192  0.14289003  0.62945289     1.90100
O852        O  0.89410882  0.21732666  0.59692838    -0.73500
O853        O  0.82077571  0.21795486  0.64834729    -0.73400
O854        O  0.83180459  0.21195211  0.58368078    -0.79000
O855        O  0.78038362  0.16351317  0.66267122    -0.77200
O856        O  0.83231408  0.16542591  0.62597128    -1.13400
O857        O  0.77899345  0.10288026  0.65342906    -0.72600
C858        C  0.80081532  0.10045877  0.67215790     0.98200
C859        C  0.90079746  0.19525341  0.58354729     0.94600
Al860      Al  0.85515835  0.21274283  0.62287471     1.55600
O861        O  0.82450878  0.10253147  0.60377054    -0.77200
C862        C  0.79429036  0.19674250  0.66573106     0.98700
C863        C  0.90035052  0.20623605  0.66901858     0.93600
O864        O  0.89514939  0.17812389  0.65543481    -0.82500
C865        C  0.57056761  0.27756078  0.94297678    -0.12100
C866        C  0.54064917  0.24294530  0.93920781     0.03300
C867        C  0.51290053  0.22937821  0.96208673    -0.12700
C868        C  0.51452660  0.24993919  0.98871915     0.18200
C869        C  0.54563873  0.28456672  0.49340185    -0.09700
C870        C  0.57229982  0.29795394  0.96976997    -0.02700
H871        H  0.98969134  0.20300442  0.95881920     0.04700
C872        C  0.98516989  0.23573368  0.51268843     0.20200
H873        H  0.59526361  0.32457398  0.97285801     0.09900
C874        C  0.98151184  0.20932739  0.53422376    -0.16000
C875        C  0.95398502  0.19543734  0.55730366     0.02900
C876        C  0.92940506  0.20796355  0.55887468    -0.11400
C877        C  0.93299466  0.23420301  0.53704068    -0.01400
C878        C  0.96040864  0.24788745  0.51389958    -0.06600
H879        H  0.50060246  0.20001608  0.53346142     0.05900
H880        H  0.91422537  0.24391363  0.53783148     0.09300
Br881      Br  0.55130629  0.31313764  0.53056199    -0.06300
Br882      Br  0.53509419  0.21430195  0.90210417    -0.03200
Br883      Br  0.95328679  0.16160175  0.58743230    -0.00400
Br884      Br  0.96170232  0.28184959  0.98334817    -0.04700
C885        C  0.92893309  0.22288809  0.69375679    -0.12100
C886        C  0.95179997  0.26018781  0.69605702     0.03300
C887        C  0.97994911  0.27448290  0.71858550    -0.12700
C888        C  0.98578615  0.25224323  0.73898241     0.18200
C889        C  0.96244736  0.21515203  0.73738597    -0.09700
C890        C  0.93465707  0.20076979  0.71459364    -0.02700
H891        H  0.49784697  0.30309285  0.71979985     0.04700
C892        C  0.51633265  0.26813416  0.76181060     0.20200
H893        H  0.91729332  0.17209939  0.71324109     0.09900
C894        C  0.51417990  0.28588749  0.78912969    -0.16000
C895        C  0.54173843  0.29945027  0.81219091     0.02900
C896        C  0.57183770  0.29510659  0.80802280    -0.11400
C897        C  0.57438473  0.27804482  0.78037170    -0.01400
C898        C  0.54713246  0.26504060  0.75705026    -0.06600
H899        H  0.99060048  0.28841210  0.79287547     0.05900
H900        H  0.59762935  0.27492115  0.77692294     0.09300
Br901      Br  0.96702268  0.18328497  0.76639250    -0.06300
Br902      Br  0.94796876  0.29290090  0.66760695    -0.03200
Br903      Br  0.53578839  0.32119714  0.85009552    -0.00400
Br904      Br  0.55332078  0.24378762  0.71891652    -0.04700
C905        C  0.71656395  0.43124183  0.81134431    -0.12100
C906        C  0.69596063  0.44637749  0.80046478     0.03300
C907        C  0.71082319  0.47432231  0.77823121    -0.12700
C908        C  0.74579143  0.48751448  0.76618113     0.18200
C909        C  0.76637768  0.47261569  0.77684833    -0.09700
C910        C  0.75172337  0.44473520  0.79915333    -0.02700
H911        H  0.69482683  0.48566620  0.76996099     0.04700
C912        C  0.75993521  0.01642049  0.74207710     0.20200
H913        H  0.76811825  0.43374284  0.80714041     0.09900
C914        C  0.78829716  0.05038579  0.75047043    -0.16000
C915        C  0.80196467  0.07835198  0.72819336     0.02900
C916        C  0.78676404  0.07251649  0.69706915    -0.11400
C917        C  0.75801198  0.03863686  0.68894535    -0.01400
C918        C  0.74480327  0.01061434  0.71101271    -0.06600
H919        H  0.79974285  0.05514322  0.77451294     0.05900
H920        H  0.74640483  0.03365985  0.66496022     0.09300
Br921      Br  0.81417302  0.98871729  0.76090079    -0.06300
Br922      Br  0.64688742  0.42958886  0.81328322    -0.03200
Br923      Br  0.83999435  0.12419016  0.74209786    -0.00400
Br924      Br  0.70732191  0.46447737  0.69710847    -0.04700
C925        C  0.78612943  0.06844651  0.56063277    -0.12100
C926        C  0.76725385  0.06819766  0.53256386     0.03300
C927        C  0.75402831  0.03993514  0.01068991    -0.12700
C928        C  0.76028592  0.01113511  0.51667186     0.18200
C929        C  0.78054744  0.01211674  0.54371016    -0.09700
C930        C  0.79298784  0.04040232  0.56551103    -0.02700
H931        H  0.73924538  0.03989403  0.98946560     0.04700
C932        C  0.74553506  0.48183927  0.99271516     0.20200
H933        H  0.80793172  0.04027672  0.58651467     0.09900
C934        C  0.76085493  0.48809504  0.96191692    -0.16000
C935        C  0.74727654  0.46123005  0.93863280     0.02900
C936        C  0.71757313  0.42727943  0.94602128    -0.11400
C937        C  0.70199936  0.42114488  0.97681156    -0.01400
C938        C  0.71586252  0.44805467  0.00017129    -0.06600
H939        H  0.78335435  0.51425417  0.45625048     0.05900
H940        H  0.67904337  0.39531355  0.98273692     0.09300
Br941      Br  0.79299915  0.47613257  0.55120626    -0.06300
Br942      Br  0.75969881  0.10721067  0.02075218    -0.03200
Br943      Br  0.76879049  0.47355284  0.89652252    -0.00400
Br944      Br  0.69277334  0.93787069  0.04153025    -0.04700
C945        C  0.78287289  0.21065381  0.55567095    -0.12100
C946        C  0.75165796  0.21283488  0.56199547     0.03300
C947        C  0.73851485  0.22654805  0.53860011    -0.12700
C948        C  0.75580282  0.23810999  0.50876422     0.19200
C949        C  0.78696871  0.23614109  0.50240919    -0.09700
C950        C  0.80036408  0.22265163  0.52584576    -0.02700
H951        H  0.71487192  0.22851400  0.54378790     0.04700
C952        C  0.74193065  0.25351044  0.98484733     0.20200
H953        H  0.82444391  0.22139881  0.52070228     0.09900
C954        C  0.74761490  0.28778111  0.98994328    -0.16000
C955        C  0.73467427  0.30317172  0.96803017     0.02900
C956        C  0.71577778  0.28408076  0.94015735    -0.11400
C957        C  0.70941939  0.24933888  0.93565539    -0.01400
C958        C  0.72215905  0.23399799  0.95776198    -0.06600
H959        H  0.76212903  0.30254100  0.51115718     0.05900
H960        H  0.69469736  0.23404593  0.91468230     0.09300
Br961      Br  0.81307131  0.25285450  0.96243143    -0.06300
Br962      Br  0.72719959  0.20011738  0.60283126    -0.03200
Br963      Br  0.74198424  0.34930740  0.97882947    -0.00400
Br964      Br  0.71122693  0.18603873  0.95048148    -0.04700
C965        C  0.71342717  0.28700411  0.80263436    -0.12100
C966        C  0.74740583  0.28919352  0.80514765     0.03300
C967        C  0.75885031  0.27503240  0.78081627    -0.12700
C968        C  0.73717191  0.25849743  0.75387541     0.18200
C969        C  0.70352946  0.25645796  0.75100639    -0.09700
C970        C  0.69187181  0.27061190  0.77530659    -0.02700
H971        H  0.78464744  0.27624490  0.78323183     0.04700
C972        C  0.74966974  0.24193949  0.73012140     0.20200
H973        H  0.66575106  0.26862131  0.77288744     0.09900
C974        C  0.74544899  0.20855204  0.73706411    -0.16000
C975        C  0.75960509  0.19310923  0.71659671     0.02900
C976        C  0.77865858  0.21146092  0.68855386    -0.11400
C977        C  0.78260200  0.24492670  0.68171323    -0.01400
C978        C  0.76825782  0.26013553  0.70216596    -0.06600
H979        H  0.73159849  0.19473152  0.75889449     0.05900
H980        H  0.79677874  0.25934895  0.66022173     0.09300
Br981      Br  0.67244473  0.23380897  0.71477555    -0.06300
Br982      Br  0.77850699  0.30835808  0.84206639    -0.03200
Br983      Br  0.75376621  0.14814968  0.72967232    -0.00400
Br984      Br  0.77532043  0.30608311  0.69139687    -0.04700
O985        O  0.61678183  0.83853111  0.34203339    -0.82000
C986        C  0.70233517  0.79918571  0.41547117     0.97400
O987        O  0.67572947  0.77855886  0.39785857    -0.71100
O988        O  0.61566045  0.77831229  0.40977497    -0.74700
Al989      Al  0.64287204  0.78572571  0.37174895     1.49000
C990        C  0.59921112  0.79395571  0.41854619     0.92600
O991        O  0.66861926  0.87958465  0.41898096    -0.80900
O992        O  0.71756493  0.88331209  0.33789753    -0.74400
Al993      Al  0.64434009  0.85747716  0.38001188     1.90100
O994        O  0.72293136  0.89453455  0.40294258    -0.73500
O995        O  0.72093587  0.82527493  0.34632131    -0.73400
O996        O  0.71832438  0.83246115  0.41143028    -0.79000
O997        O  0.66590902  0.78585015  0.33278137    -0.77200
O998        O  0.66739205  0.83316464  0.37552186    -1.13400
O999        O  0.60554014  0.78349126  0.34524975    -0.72600
C1000       C  0.59968349  0.80657121  0.33293115     0.98200
C1001       C  0.70236165  0.89876139  0.42171444     0.94600
Al1002     Al  0.71566671  0.85676338  0.37473455     1.55600
O1003       O  0.60634659  0.82326149  0.40630834    -0.77200
C1004       C  0.69937523  0.80012115  0.32842619     0.98700
C1005       C  0.70293592  0.90211201  0.33537914     0.93600
O1006       O  0.67766561  0.89725811  0.35417751    -0.82500
O1007       O  0.83419218  0.62025878  0.16834103    -0.82000
C1008       C  0.79795080  0.69702768  0.07993556     0.97400
O1009       O  0.77701205  0.67132659  0.09771712    -0.71100
O1010       O  0.78297983  0.61478149  0.08813803    -0.74700
Al1011     Al  0.78398373  0.64016515  0.12541676     1.49000
C1012       C  0.79867904  0.59709599  0.08490628     0.92600
O1013       O  0.88338398  0.66273534  0.09099533    -0.80900
O1014       O  0.88158495  0.72006109  0.16123614    -0.74400
Al1015     Al  0.85708342  0.64283147  0.12928444     1.90100
O1016       O  0.89395370  0.71725152  0.09669514    -0.73500
O1017       O  0.82056661  0.71780956  0.14813894    -0.73400
O1018       O  0.83164732  0.71174224  0.08346489    -0.79000
O1019       O  0.78033799  0.66332180  0.16259266    -0.77200
O1020       O  0.83219787  0.66534682  0.12579703    -1.13400
O1021       O  0.77886671  0.60264792  0.15311135    -0.72600
C1022       C  0.80068256  0.60026842  0.17187918     0.98200
C1023       C  0.90060244  0.69514499  0.08332712     0.94600
Al1024     Al  0.85500070  0.71264930  0.12265543     1.55600
O1025       O  0.82438381  0.60249049  0.10350959    -0.77200
C1026       C  0.79420613  0.69655475  0.16563072     0.98700
C1027       C  0.90025801  0.70629402  0.16881359     0.93600
O1028       O  0.89502323  0.67812091  0.15530526    -0.82500
C1029       C  0.57085875  0.77790739  0.44320662    -0.12100
C1030       C  0.54070367  0.74344775  0.43940097     0.03300
C1031       C  0.51313096  0.72994898  0.46244336    -0.12700
C1032       C  0.51515433  0.75042004  0.48928358     0.18200
C1033       C  0.54477827  0.78423721  0.99279857    -0.09700
C1034       C  0.57300783  0.79821741  0.47021380    -0.02700
H1035       H  0.98972815  0.70370792  0.45913067     0.04700
C1036       C  0.98447769  0.73515620  0.01205018     0.20200
H1037       H  0.59614216  0.82469901  0.47333089     0.09900
C1038       C  0.98098888  0.70892056  0.03371440    -0.16000
C1039       C  0.95364716  0.69521953  0.05696067     0.02900
C1040       C  0.92906260  0.70773518  0.05854423    -0.11400
C1041       C  0.93243698  0.73375793  0.03655553    -0.01400
C1042       C  0.95969054  0.74728216  0.01326848    -0.06600
H1043       H  0.50012268  0.69966783  0.03297265     0.05900
H1044       H  0.91364890  0.74343962  0.03735857     0.09300
Br1045     Br  0.54996146  0.81291269  0.02975166    -0.06300
Br1046     Br  0.53457444  0.71496356  0.40203301    -0.03200
Br1047     Br  0.95327141  0.66174764  0.08734430    -0.00400
Br1048     Br  0.96261390  0.78262885  0.48409024    -0.04700
C1049       C  0.92892427  0.72308694  0.19349324    -0.12100
C1050       C  0.95157844  0.76042177  0.19587444     0.03300
C1051       C  0.97981422  0.77483634  0.21833505    -0.12700
C1052       C  0.98599231  0.75269239  0.23856487     0.18200
C1053       C  0.96286059  0.71556184  0.23687374    -0.09700
C1054       C  0.93494527  0.70106997  0.21419735    -0.02700
H1055       H  0.49751400  0.80346784  0.21961931     0.04700
C1056       C  0.51658808  0.76870849  0.26139190     0.20200
H1057       H  0.91771246  0.67238610  0.21283678     0.09900
C1058       C  0.51451943  0.78669676  0.28857820    -0.16000
C1059       C  0.54199608  0.80019145  0.31173835     0.02900
C1060       C  0.57193711  0.79552832  0.30783286    -0.11400
C1061       C  0.57444512  0.77831621  0.28026706    -0.01400
C1062       C  0.54730042  0.76541153  0.25683387    -0.06600
H1063       H  0.99103755  0.78942025  0.29217112     0.05900
H1064       H  0.59758699  0.77499169  0.27696824     0.09300
Br1065     Br  0.96784986  0.68373170  0.26560044    -0.06300
Br1066     Br  0.94733464  0.79306866  0.16764768    -0.03200
Br1067     Br  0.53607807  0.82224245  0.34943549    -0.00400
Br1068     Br  0.55353376  0.74401611  0.21881956    -0.04700
C1069       C  0.71664171  0.93105194  0.31112758    -0.12100
C1070       C  0.69521623  0.94463833  0.29882546     0.03300
C1071       C  0.71001523  0.97268554  0.27668777    -0.12700
C1072       C  0.74570841  0.98733473  0.26597566     0.18200
C1073       C  0.76704500  0.97379463  0.27795497    -0.09700
C1074       C  0.75247784  0.94593440  0.30028850    -0.02700
H1075       H  0.69339235  0.98288179  0.26737387     0.04700
C1076       C  0.75982650  0.51625204  0.24183908     0.20200
H1077       H  0.76943656  0.93602446  0.30936211     0.09900
C1078       C  0.78755201  0.55047786  0.25044515    -0.16000
C1079       C  0.80129501  0.57838791  0.22810342     0.02900
C1080       C  0.78665524  0.57229423  0.19674916    -0.11400
C1081       C  0.75854451  0.53816998  0.18837545    -0.01400
C1082       C  0.74540543  0.51015799  0.21046208    -0.06600
H1083       H  0.79851406  0.55546382  0.27468651     0.05900
H1084       H  0.74746674  0.53300817  0.16419600     0.09300
Br1085     Br  0.81576104  0.49161126  0.26369230    -0.06300
Br1086     Br  0.64506986  0.92516150  0.30933156    -0.03200
Br1087     Br  0.83878376  0.62446304  0.24211314    -0.00400
Br1088     Br  0.70917836  0.96364973  0.19610545    -0.04700
C1089       C  0.78611349  0.56871383  0.06015117    -0.12100
C1090       C  0.76708036  0.56855052  0.03221267     0.03300
C1091       C  0.75436871  0.53954182  0.51109651    -0.12700
C1092       C  0.75993217  0.51150448  0.01608975     0.18200
C1093       C  0.78038066  0.51241706  0.04294136    -0.09700
C1094       C  0.79301268  0.54066615  0.06479469    -0.02700
H1095       H  0.73973162  0.53946689  0.48975642     0.04700
C1096       C  0.74611455  0.98148323  0.49325021     0.20200
H1097       H  0.80807873  0.54047403  0.08568402     0.09900
C1098       C  0.76115032  0.98802003  0.46230925    -0.16000
C1099       C  0.74752272  0.96130052  0.43887542     0.02900
C1100       C  0.71806305  0.92720689  0.44623987    -0.11400
C1101       C  0.70282203  0.92074913  0.47718558    -0.01400
C1102       C  0.71671948  0.94750843  0.50069699    -0.06600
H1103       H  0.78330939  0.01419638  0.95587444     0.05900
H1104       H  0.68005511  0.89478519  0.48309873     0.09300
Br1105     Br  0.79267439  0.97627315  0.05012638    -0.06300
Br1106     Br  0.75995122  0.60684018  0.52084834    -0.03200
Br1107     Br  0.76850813  0.97398972  0.39659026    -0.00400
Br1108     Br  0.69391242  0.43685800  0.54220198    -0.04700
C1109       C  0.78279308  0.71054164  0.05548295    -0.12100
C1110       C  0.75157218  0.71273417  0.06172115     0.03300
C1111       C  0.73858535  0.72657532  0.03831314    -0.12700
C1112       C  0.75605870  0.73827895  0.00857000     0.19200
C1113       C  0.78724264  0.73632208  0.00230795    -0.09700
C1114       C  0.80045554  0.72266698  0.02574142    -0.02700
H1115       H  0.71492427  0.72854049  0.04342234     0.04700
C1116       C  0.74154422  0.75325753  0.48505602     0.20200
H1117       H  0.82456196  0.72142618  0.02067419     0.09900
C1118       C  0.74744825  0.78763116  0.48998972    -0.16000
C1119       C  0.73446839  0.80298710  0.46807037     0.02900
C1120       C  0.71540802  0.78381498  0.44028104    -0.11400
C1121       C  0.70874645  0.74893350  0.43598715    -0.01400
C1122       C  0.72143598  0.73358639  0.45816078    -0.06600
H1123       H  0.76211428  0.80258320  0.01121386     0.05900
H1124       H  0.69381257  0.73352786  0.41513455     0.09300
Br1125     Br  0.81249404  0.75236809  0.46236463    -0.06300
Br1126     Br  0.72692038  0.69990179  0.10246299    -0.03200
Br1127     Br  0.74187814  0.84917224  0.47880620    -0.00400
Br1128     Br  0.70993583  0.68539147  0.45128763    -0.04700
C1129       C  0.71336117  0.78678845  0.30263104    -0.12100
C1130       C  0.74765228  0.78959163  0.30482734     0.03300
C1131       C  0.75899955  0.77522608  0.28059558    -0.12700
C1132       C  0.73694346  0.75788666  0.25405793     0.18200
C1133       C  0.70298327  0.75520364  0.25150142    -0.09700
C1134       C  0.69142083  0.76957245  0.27568987    -0.02700
H1135       H  0.78506424  0.77696639  0.28276064     0.04700
C1136       C  0.74951967  0.74138056  0.23031293     0.20200
H1137       H  0.66506533  0.76707645  0.27349420     0.09900
C1138       C  0.74645839  0.70855604  0.23768282    -0.16000
C1139       C  0.76071983  0.69328201  0.21713053     0.02900
C1140       C  0.77862933  0.71119731  0.18855609    -0.11400
C1141       C  0.78149407  0.74411697  0.18131828    -0.01400
C1142       C  0.76710076  0.75919023  0.20187583    -0.06600
H1143       H  0.73346324  0.69507626  0.25990551     0.05900
H1144       H  0.79486855  0.75820476  0.15943844     0.09300
Br1145     Br  0.67132197  0.73134520  0.21588291    -0.06300
Br1146     Br  0.77947623  0.80999448  0.34114322    -0.03200
Br1147     Br  0.75683694  0.64930454  0.23078411    -0.00400
Br1148     Br  0.77281201  0.80449488  0.19061699    -0.04700
O1149       O  0.61686261  0.83832543  0.84187334    -0.82000
C1150       C  0.70254495  0.79936575  0.91545142     0.97400
O1151       O  0.67594564  0.77866451  0.89787591    -0.71100
O1152       O  0.61581611  0.77825963  0.90995250    -0.74700
Al1153     Al  0.64294100  0.78565192  0.87186512     1.49000
C1154       C  0.59907197  0.79369804  0.91846130     0.92600
O1155       O  0.66824038  0.87931013  0.91898796    -0.80900
O1156       O  0.71735386  0.88327439  0.83788254    -0.74400
Al1157     Al  0.64415185  0.85725726  0.87995696     1.90100
O1158       O  0.72262670  0.89449760  0.90293890    -0.73500
O1159       O  0.72095946  0.82538114  0.84635109    -0.73400
O1160       O  0.71839069  0.83263239  0.91144367    -0.79000
O1161       O  0.66593065  0.78582594  0.83285804    -0.77200
O1162       O  0.66733364  0.83307915  0.87555763    -1.13400
O1163       O  0.60547982  0.78324599  0.84547274    -0.72600
C1164       C  0.59968652  0.80629243  0.83298448     0.98200
C1165       C  0.70197637  0.89866300  0.92166563     0.94600
Al1166     Al  0.71558587  0.85681190  0.87474623     1.55600
O1167       O  0.60604120  0.82288920  0.90606937    -0.77200
C1168       C  0.69940308  0.80020396  0.82846953     0.98700
C1169       C  0.70279373  0.90214710  0.83548978     0.93600
O1170       O  0.67751967  0.89718469  0.85431479    -0.82500
O1171       O  0.83432804  0.62033775  0.66852256    -0.82000
C1172       C  0.79810140  0.69715525  0.58008718     0.97400
O1173       O  0.77717021  0.67135271  0.59777437    -0.71100
O1174       O  0.78302370  0.61468837  0.58838693    -0.74700
Al1175     Al  0.78409115  0.64025938  0.62558727     1.49000
C1176       C  0.79872221  0.59698986  0.58523314     0.92600
O1177       O  0.88352304  0.66281125  0.59113670    -0.80900
O1178       O  0.88171060  0.72005012  0.66147113    -0.74400
Al1179     Al  0.85720234  0.64288989  0.62945355     1.90100
O1180       O  0.89410987  0.71732600  0.59692764    -0.73500
O1181       O  0.82077675  0.71795543  0.64834593    -0.73400
O1182       O  0.83180606  0.71195199  0.58367930    -0.79000
O1183       O  0.78038417  0.66351382  0.66266970    -0.77200
O1184       O  0.83231489  0.66542607  0.62597070    -1.13400
O1185       O  0.77899337  0.60288065  0.65342833    -0.72600
C1186       C  0.80081472  0.60045951  0.67215808     0.98200
C1187       C  0.90079854  0.69525246  0.58354722     0.94600
Al1188     Al  0.85515949  0.71274298  0.62287365     1.55600
O1189       O  0.82450931  0.60253125  0.60377119    -0.77200
C1190       C  0.79429115  0.69674312  0.66572954     0.98700
C1191       C  0.90035110  0.70623650  0.66901867     0.93600
O1192       O  0.89514965  0.67812384  0.65543576    -0.82500
C1193       C  0.57056727  0.77755961  0.94297551    -0.12100
C1194       C  0.54064984  0.74294396  0.93920699     0.03300
C1195       C  0.51289929  0.72937465  0.96208551    -0.12700
C1196       C  0.51452621  0.74993764  0.98871784     0.18200
C1197       C  0.54563916  0.78456501  0.49340109    -0.09700
C1198       C  0.57230019  0.79795500  0.96976847    -0.02700
H1199       H  0.98969645  0.70300661  0.95881897     0.04700
C1200       C  0.98517028  0.73573100  0.51268736     0.20200
H1201       H  0.59525477  0.82456523  0.97285527     0.09900
C1202       C  0.98151197  0.70932414  0.53422250    -0.16000
C1203       C  0.95398496  0.69543449  0.55730263     0.02900
C1204       C  0.92940610  0.70796181  0.55887433    -0.11400
C1205       C  0.93299504  0.73420218  0.53704056    -0.01400
C1206       C  0.96040979  0.74788551  0.51389909    -0.06600
H1207       H  0.50060045  0.70001402  0.53346002     0.05900
H1208       H  0.91423196  0.74391045  0.53783144     0.09300
Br1209     Br  0.55130707  0.81313595  0.53056137    -0.06300
Br1210     Br  0.53509574  0.71429995  0.90210396    -0.03200
Br1211     Br  0.95328579  0.66159793  0.58743059    -0.00400
Br1212     Br  0.96169988  0.78184612  0.98334512    -0.04700
C1213       C  0.92893394  0.72288930  0.69375676    -0.12100
C1214       C  0.95180204  0.76018894  0.69605522     0.03300
C1215       C  0.97995054  0.77448319  0.71858346    -0.12700
C1216       C  0.98578753  0.75224536  0.73898187     0.18200
C1217       C  0.96244752  0.71515426  0.73738731    -0.09700
C1218       C  0.93465566  0.70076951  0.71459520    -0.02700
H1219       H  0.49785404  0.80310042  0.71979679     0.04700
C1220       C  0.51633417  0.76813628  0.76180992     0.20200
H1221       H  0.91729701  0.67210953  0.71324482     0.09900
C1222       C  0.51418282  0.78589150  0.78912812    -0.16000
C1223       C  0.54174146  0.79945412  0.81218921     0.02900
C1224       C  0.57183965  0.79510847  0.80802180    -0.11400
C1225       C  0.57438575  0.77804517  0.78037126    -0.01400
C1226       C  0.54713316  0.76504115  0.75704998    -0.06600
H1227       H  0.99060482  0.78841765  0.79287308     0.05900
H1228       H  0.59762861  0.77492005  0.77692310     0.09300
Br1229     Br  0.96702175  0.68328781  0.76639556    -0.06300
Br1230     Br  0.94797225  0.79290088  0.66760261    -0.03200
Br1231     Br  0.53579313  0.82120365  0.85009272    -0.00400
Br1232     Br  0.55331997  0.74378605  0.71891698    -0.04700
C1233       C  0.71656621  0.93124068  0.81134410    -0.12100
C1234       C  0.69596421  0.94637832  0.80046626     0.03300
C1235       C  0.71082627  0.97432317  0.77823194    -0.12700
C1236       C  0.74579367  0.98751226  0.76617971     0.18200
C1237       C  0.76637846  0.97261127  0.77684500    -0.09700
C1238       C  0.75172436  0.94473133  0.79915073    -0.02700
H1239       H  0.69483391  0.98566657  0.76996448     0.04700
C1240       C  0.75993302  0.51642265  0.74207861     0.20200
H1241       H  0.76811768  0.93373756  0.80713591     0.09900
C1242       C  0.78829239  0.55038853  0.75047158    -0.16000
C1243       C  0.80196084  0.57835447  0.72819512     0.02900
C1244       C  0.78676272  0.57251765  0.69706967    -0.11400
C1245       C  0.75801211  0.53863722  0.68894482    -0.01400
C1246       C  0.74480333  0.51061521  0.71101305    -0.06600
H1247       H  0.79973877  0.55514795  0.77452027     0.05900
H1248       H  0.74640808  0.53365961  0.66496083     0.09300
Br1249     Br  0.81417433  0.48872569  0.76090774    -0.06300
Br1250     Br  0.64689244  0.92959333  0.81328752    -0.03200
Br1251     Br  0.83998775  0.62419393  0.74209998    -0.00400
Br1252     Br  0.70731882  0.96447765  0.69710899    -0.04700
C1253       C  0.78613031  0.56844603  0.56063340    -0.12100
C1254       C  0.76725245  0.56819555  0.53256530     0.03300
C1255       C  0.75402759  0.53993740  0.01068822    -0.12700
C1256       C  0.76028627  0.51113381  0.51667330     0.18200
C1257       C  0.78055009  0.51211710  0.54371060    -0.09700
C1258       C  0.79298966  0.54040302  0.56550975    -0.02700
H1259       H  0.73925139  0.53989790  0.98947044     0.04700
C1260       C  0.74553819  0.98183818  0.99271567     0.20200
H1261       H  0.80794034  0.54027860  0.58651961     0.09900
C1262       C  0.76086131  0.98809397  0.96191807    -0.16000
C1263       C  0.74728186  0.96122750  0.93863442     0.02900
C1264       C  0.71757609  0.92727828  0.94602190    -0.11400
C1265       C  0.70199954  0.92114395  0.97681159    -0.01400
C1266       C  0.71586389  0.94805482  0.00017103    -0.06600
H1267       H  0.78336210  0.01425954  0.45624880     0.05900
H1268       H  0.67904661  0.89531859  0.98273518     0.09300
Br1269     Br  0.79299321  0.97613008  0.55120742    -0.06300
Br1270     Br  0.75970553  0.60721606  0.02075083    -0.03200
Br1271     Br  0.76879988  0.97354898  0.89652564    -0.00400
Br1272     Br  0.69277358  0.43786898  0.04153134    -0.04700
C1273       C  0.78287450  0.71065311  0.55566836    -0.12100
C1274       C  0.75165957  0.71283472  0.56199254     0.03300
C1275       C  0.73851808  0.72654672  0.53859613    -0.12700
C1276       C  0.75580386  0.73810741  0.50876036     0.19200
C1277       C  0.78696975  0.73613802  0.50240552    -0.09700
C1278       C  0.80036466  0.72264939  0.52584285    -0.02700
H1279       H  0.71486622  0.72851411  0.54378580     0.04700
C1280       C  0.74192856  0.75350744  0.98484772     0.20200
H1281       H  0.82444684  0.72139602  0.52069914     0.09900
C1282       C  0.74761359  0.78777871  0.98994399    -0.16000
C1283       C  0.73467274  0.80316898  0.96803029     0.02900
C1284       C  0.71577617  0.78407804  0.94015768    -0.11400
C1285       C  0.70941671  0.74933545  0.93565549    -0.01400
C1286       C  0.72215647  0.73399475  0.95776279    -0.06600
H1287       H  0.76213249  0.80253995  0.51115550     0.05900
H1288       H  0.69469638  0.73404446  0.91468516     0.09300
Br1289     Br  0.81306770  0.75284931  0.96243047    -0.06300
Br1290     Br  0.72720250  0.70011982  0.60282883    -0.03200
Br1291     Br  0.74198301  0.84930480  0.97882951    -0.00400
Br1292     Br  0.71122326  0.68603512  0.95048293    -0.04700
C1293       C  0.71342819  0.78700337  0.80263402    -0.12100
C1294       C  0.74740727  0.78919391  0.80514654     0.03300
C1295       C  0.75885158  0.77503279  0.78081496    -0.12700
C1296       C  0.73717266  0.75849709  0.75387453     0.18200
C1297       C  0.70353006  0.75645704  0.75100613    -0.09700
C1298       C  0.69187081  0.77061038  0.77530656    -0.02700
H1299       H  0.78464922  0.77624594  0.78322999     0.04700
C1300       C  0.74967038  0.74193930  0.73012042     0.20200
H1301       H  0.66575811  0.76862005  0.77288840     0.09900
C1302       C  0.74545079  0.70855270  0.73706241    -0.16000
C1303       C  0.75960645  0.69310969  0.71659563     0.02900
C1304       C  0.77865951  0.71146147  0.68855247    -0.11400
C1305       C  0.78260195  0.74492670  0.68171207    -0.01400
C1306       C  0.76825795  0.76013551  0.70216476    -0.06600
H1307       H  0.73159801  0.69472954  0.75889697     0.05900
H1308       H  0.79677939  0.75934990  0.66021905     0.09300
Br1309     Br  0.67244490  0.73380817  0.71477534    -0.06300
Br1310     Br  0.77851009  0.80836078  0.84206404    -0.03200
Br1311     Br  0.75376879  0.64815064  0.72967133    -0.00400
Br1312     Br  0.77531967  0.80608279  0.69139588    -0.04700
loop_ 
_geom_bond_atom_site_label_1 
_geom_bond_atom_site_label_2 
_geom_bond_distance 
_geom_bond_site_symmetry_2 
_ccdc_geom_bond_type 
O1           C16   1.259       .  A
O1           Al9   1.890       .  S
C2           O12   1.262       .  A
C2            O3   1.267       .  A
C2          C136   1.483       .  S
O3           Al5   1.924       .  S
O4            C6   1.258       .  A
O4           Al5   1.892       .  S
Al5          O13   1.895       .  S
Al5          O15   1.904       .  S
Al5          O14   1.789       .  S
C6           O19   1.259       .  A
C6           C45   1.469       .  S
O7           C17   1.258       .  A
O7           Al9   1.900       .  S
O8           C21   1.263       .  A
O8          Al18   1.893       .  S
Al9          O22   1.921       .  S
Al9          O19   1.901       .  S
Al9          O14   1.787       .  S
O10          C17   1.259       .  A
O10         Al18   1.912       .  S
O11          C20   1.257       .  A
O11         Al18   1.907       .  S
O12         Al18   1.890       .  S
O13          C20   1.256       .  A
O14         Al18   1.787       .  S
O15          C16   1.261       .  A
C16          C76   1.467       .  S
C17         C116   1.476       .  S
C20         C145   1.483       .  S
C21          O22   1.264       .  A
C21          C85   1.482       .  S
O23          C38   1.257       .  A
O23         Al31   1.893       .  S
C24          O34   1.259       .  A
C24          O25   1.260       .  A
C24         C125   1.478       .  S
O25         Al27   1.913       .  S
O26          C28   1.261       .  A
O26         Al27   1.890       .  S
Al27         O35   1.893       .  S
Al27         O37   1.917       .  S
Al27         O36   1.785       .  S
C28          O41   1.267       .  A
C28         C105   1.483       .  S
O29          C39   1.258       .  A
O29         Al31   1.887       .  S
O30          C43   1.259       .  A
O30         Al40   1.896       .  S
Al31         O44   1.909       .  S
Al31         O41   1.924       .  S
Al31         O36   1.784       .  S
O32          C39   1.263       .  A
O32         Al40   1.913       .  S
O33          C42   1.267       .  A
O33         Al40   1.921       .  S
O34         Al40   1.899       .  S
O35          C42   1.262       .  A
O36         Al40   1.782       .  S
O37          C38   1.261       .  A
C38          C96   1.473       .  S
C39          C56   1.474       .  S
C42         C156   1.480       .  S
C43          O44   1.262       .  A
C43          C65   1.478       .  S
C45          C46   1.409       .  A
C45          C50   1.402       .  A
C46          C47   1.399       .  A
C46         Br62   1.919       .  S
C47          C48   1.402       .  A
C47         H707   1.082   1_455  S
C48         C872   1.475   1_455  S
C48         C213   1.408       .  A
C49         C212   1.408       .  A
C49         C214   1.397       .  A
C49         Br61   1.919   1_556  S
C50         C213   1.398       .  A
C50          H53   1.083       .  S
H51         C703   1.082       .  S
C52         C868   1.475   1_554  S
C52          C54   1.401       .  A
C52          C58   1.407       .  A
C54          C55   1.399       .  A
C54         H715   1.083       .  S
C55          C56   1.413       .  A
C55         Br63   1.921       .  S
C56          C57   1.404       .  A
C57          C58   1.398       .  A
C57          H60   1.083       .  S
C58        Br228   1.919   1_554  S
H59         C710   1.083   1_455  S
Br64        C222   1.919       .  S
C65          C66   1.414       .  A
C65          C70   1.405       .  A
C66          C67   1.400       .  A
C66         Br82   1.920       .  S
C67          C68   1.401       .  A
C67         H727   1.084       .  S
C68         C728   1.476       .  S
C68          C69   1.407       .  A
C69          C70   1.397       .  A
C69         Br81   1.920       .  S
C70          H73   1.084       .  S
H71         C723   1.084       .  S
C72         C724   1.476   1_455  S
C72          C74   1.402       .  A
C72          C78   1.409       .  A
C74          C75   1.399       .  A
C74         H735   1.083   1_455  S
C75          C76   1.408       .  A
C75         Br83   1.919       .  S
C76          C77   1.402       .  A
C77          C78   1.398       .  A
C77          H80   1.082       .  S
C78         Br84   1.919       .  S
H79         C730   1.083       .  S
C85          C86   1.416       .  A
C85          C90   1.407       .  A
C86          C87   1.398       .  A
C86        Br102   1.922       .  S
C87          C88   1.401       .  A
C87          H91   1.084       .  S
C88         C420   1.478       .  S
C88          C89   1.406       .  A
C89          C90   1.398       .  A
C89        Br429   1.919       .  S
C90          H93   1.084       .  S
C92         C416   1.478   1_545  S
C92          C94   1.403       .  A
C92          C98   1.408       .  A
C94          C95   1.400       .  A
C94          H99   1.085       .  S
C95          C96   1.410       .  A
C95        Br103   1.919       .  S
C96          C97   1.403       .  A
C97          C98   1.396       .  A
C97         H100   1.084       .  S
C98        Br432   1.920   1_545  S
Br101       C417   1.919       .  S
Br104       C426   1.920       .  S
C105        C106   1.415       .  A
C105        C110   1.408       .  A
C106        C271   1.399       .  A
C106       Br286   1.923       .  S
C107        C270   1.399       .  A
C107        C272   1.402       .  A
C107        H111   1.084       .  S
C108        C604   1.478   1_544  S
C108        C109   1.406       .  A
C108        C271   1.401       .  A
C109        C110   1.398       .  A
C109       Br449   1.919   1_545  S
C110        H113   1.084       .  S
C112        C600   1.479       .  S
C112        C114   1.401       .  A
C112        C118   1.410       .  A
C114        C115   1.398       .  A
C114        H283   1.084       .  S
C115        C116   1.413       .  A
C115       Br123   1.922       .  S
C116        C117   1.404       .  A
C117        C118   1.401       .  A
C117        H120   1.084       .  S
C118       Br452   1.919       .  S
H119        C278   1.084       .  S
Br121       C437   1.919       .  S
Br122       C270   1.923       .  S
Br124       C446   1.919       .  S
C125        C126   1.415       .  A
C125        C130   1.405       .  A
C126        C127   1.398       .  A
C126       Br142   1.922       .  S
C127        C128   1.400       .  A
C127        H131   1.083       .  S
C128        C296   1.477   1_554  S
C128        C129   1.408       .  A
C129        C130   1.400       .  A
C129       Br305   1.918   1_554  S
C130        H133   1.084       .  S
C132        C292   1.478       .  S
C132        C134   1.401       .  A
C132        C138   1.405       .  A
C134        C135   1.400       .  A
C134        H303   1.084       .  S
C135        C136   1.416       .  A
C135       Br143   1.923       .  S
C136        C137   1.408       .  A
C137        C138   1.399       .  A
C137        H140   1.084       .  S
C138       Br144   1.919       .  S
H139        C298   1.084   1_554  S
Br141       C293   1.918       .  S
C145        C146   1.416       .  A
C145        C150   1.408       .  A
C146        C147   1.396       .  A
C146       Br162   1.922       .  S
C147        C148   1.398       .  A
C147        H151   1.086       .  S
C148        C152   1.474       .  S
C148        C149   1.406       .  A
C149        C150   1.400       .  A
C149       Br161   1.918       .  S
C150        H153   1.084       .  S
C152        C154   1.401       .  A
C152        C158   1.404       .  A
C154        C155   1.399       .  A
C154        H159   1.084       .  S
C155        C156   1.414       .  A
C155       Br163   1.921       .  S
C156        C157   1.408       .  A
C157        C158   1.397       .  A
C157        H160   1.083       .  S
C158       Br164   1.918       .  S
O165        C180   1.259       .  A
O165       Al173   1.889       .  S
C166        O176   1.262       .  A
C166        O167   1.267       .  A
C166        C300   1.482       .  S
O167       Al169   1.922       .  S
O168        C170   1.258       .  A
O168       Al169   1.892       .  S
Al169       O177   1.895       .  S
Al169       O179   1.903       .  S
Al169       O178   1.788       .  S
C170        O183   1.259       .  A
C170        C209   1.469       .  S
O171        C181   1.258       .  A
O171       Al173   1.900       .  S
O172        C185   1.263       .  A
O172       Al182   1.893       .  S
Al173       O186   1.920       .  S
Al173       O183   1.901       .  S
Al173       O178   1.786       .  S
O174        C181   1.259       .  A
O174       Al182   1.911       .  S
O175        C184   1.258       .  A
O175       Al182   1.907       .  S
O176       Al182   1.889       .  S
O177        C184   1.256       .  A
O178       Al182   1.786       .  S
O179        C180   1.261       .  A
C180        C240   1.465       .  S
C181        C280   1.476       .  S
C184        C309   1.481       .  S
C185        O186   1.264       .  A
C185        C249   1.483       .  S
O187        C202   1.257       .  A
O187       Al195   1.893       .  S
C188        O198   1.259       .  A
C188        O189   1.260       .  A
C188        C289   1.478       .  S
O189       Al191   1.913       .  S
O190        C192   1.261       .  A
O190       Al191   1.891       .  S
Al191       O199   1.893       .  S
Al191       O201   1.916       .  S
Al191       O200   1.785       .  S
C192        O205   1.266       .  A
C192        C269   1.483       .  S
O193        C203   1.259       .  A
O193       Al195   1.889       .  S
O194        C207   1.259       .  A
O194       Al204   1.896       .  S
Al195       O208   1.907       .  S
Al195       O205   1.923       .  S
Al195       O200   1.784       .  S
O196        C203   1.263       .  A
O196       Al204   1.913       .  S
O197        C206   1.266       .  A
O197       Al204   1.920       .  S
O198       Al204   1.901       .  S
O199        C206   1.262       .  A
O200       Al204   1.783       .  S
O201        C202   1.261       .  A
C202        C260   1.473       .  S
C203        C220   1.475       .  S
C206        C320   1.482       .  S
C207        O208   1.261       .  A
C207        C229   1.477       .  S
C209        C210   1.409       .  A
C209        C214   1.402       .  A
C210        C211   1.399       .  A
C210       Br226   1.919       .  S
C211        C212   1.402       .  A
C211        H871   1.082   1_455  S
C212        C708   1.475   1_456  S
C213       Br225   1.919       .  S
C214        H217   1.083       .  S
H215        C867   1.082       .  S
C216        C704   1.475       .  S
C216        C218   1.401       .  A
C216        C222   1.407       .  A
C218        C219   1.399       .  A
C218        H879   1.083       .  S
C219        C220   1.413       .  A
C219       Br227   1.920       .  S
C220        C221   1.404       .  A
C221        C222   1.398       .  A
C221        H224   1.083       .  S
H223        C874   1.083   1_455  S
C229        C230   1.413       .  A
C229        C234   1.405       .  A
C230        C231   1.399       .  A
C230       Br246   1.920       .  S
C231        C232   1.400       .  A
C231        H891   1.084       .  S
C232        C892   1.475       .  S
C232        C233   1.407       .  A
C233        C234   1.397       .  A
C233       Br245   1.920       .  S
C234        H237   1.084       .  S
H235        C887   1.084       .  S
C236        C888   1.475   1_455  S
C236        C238   1.402       .  A
C236        C242   1.409       .  A
C238        C239   1.398       .  A
C238        H899   1.083   1_455  S
C239        C240   1.408       .  A
C239       Br247   1.919       .  S
C240        C241   1.402       .  A
C241        C242   1.398       .  A
C241        H244   1.082       .  S
C242       Br248   1.919       .  S
H243        C894   1.083       .  S
C249        C250   1.417       .  A
C249        C254   1.408       .  A
C250        C251   1.398       .  A
C250       Br266   1.922       .  S
C251        C252   1.400       .  A
C251        H255   1.084       .  S
C252        C584   1.476       .  S
C252        C253   1.406       .  A
C253        C254   1.398       .  A
C253       Br593   1.919       .  S
C254        H257   1.083       .  S
C256        C580   1.476   1_545  S
C256        C258   1.403       .  A
C256        C262   1.407       .  A
C258        C259   1.399       .  A
C258        H263   1.085       .  S
C259        C260   1.410       .  A
C259       Br267   1.919       .  S
C260        C261   1.404       .  A
C261        C262   1.396       .  A
C261        H264   1.084       .  S
C262       Br596   1.920   1_545  S
Br265       C581   1.919       .  S
Br268       C590   1.920       .  S
C269        C270   1.415       .  A
C269        C274   1.408       .  A
C271        H275   1.084   1_554  S
C272        C440   1.479   1_545  S
C272        C273   1.406       .  A
C273        C274   1.398       .  A
C273       Br613   1.919   1_545  S
C274        H277   1.083       .  S
C276        C436   1.478   1_556  S
C276        C278   1.400       .  A
C276        C282   1.409   1_556  A
C278        C279   1.397       .  A
C279        C280   1.413       .  A
C279       Br287   1.922       .  S
C280        C281   1.404       .  A
C281        C282   1.401   1_556  A
C281        H284   1.084       .  S
C282       Br616   1.919       .  S
Br285       C601   1.919       .  S
Br288       C610   1.919       .  S
C289        C290   1.415       .  A
C289        C294   1.404       .  A
C290        C291   1.399       .  A
C290       Br306   1.922       .  S
C291        C292   1.400       .  A
C291        H295   1.083       .  S
C292        C293   1.408       .  A
C293        C294   1.400       .  A
C294        H297   1.083       .  S
C296        C298   1.401       .  A
C296        C302   1.405       .  A
C298        C299   1.400       .  A
C299        C300   1.416       .  A
C299       Br307   1.923       .  S
C300        C301   1.407       .  A
C301        C302   1.398       .  A
C301        H304   1.084       .  S
C302       Br308   1.919       .  S
C309        C310   1.416       .  A
C309        C314   1.408       .  A
C310        C311   1.396       .  A
C310       Br326   1.922       .  S
C311        C312   1.398       .  A
C311        H315   1.086       .  S
C312        C316   1.474       .  S
C312        C313   1.406       .  A
C313        C314   1.400       .  A
C313       Br325   1.918       .  S
C314        H317   1.084       .  S
C316        C318   1.401       .  A
C316        C322   1.404       .  A
C318        C319   1.399       .  A
C318        H323   1.084       .  S
C319        C320   1.415       .  A
C319       Br327   1.922       .  S
C320        C321   1.408       .  A
C321        C322   1.397       .  A
C321        H324   1.083       .  S
C322       Br328   1.918       .  S
O329        C344   1.259       .  A
O329       Al337   1.890       .  S
C330        O340   1.262       .  A
C330        O331   1.267       .  A
C330        C464   1.483       .  S
O331       Al333   1.924       .  S
O332        C334   1.258       .  A
O332       Al333   1.892       .  S
Al333       O341   1.895       .  S
Al333       O343   1.904       .  S
Al333       O342   1.789       .  S
C334        O347   1.259       .  A
C334        C373   1.469       .  S
O335        C345   1.258       .  A
O335       Al337   1.900       .  S
O336        C349   1.263       .  A
O336       Al346   1.893       .  S
Al337       O350   1.921       .  S
Al337       O347   1.901       .  S
Al337       O342   1.787       .  S
O338        C345   1.259       .  A
O338       Al346   1.912       .  S
O339        C348   1.257       .  A
O339       Al346   1.907       .  S
O340       Al346   1.890       .  S
O341        C348   1.256       .  A
O342       Al346   1.787       .  S
O343        C344   1.261       .  A
C344        C404   1.467       .  S
C345        C444   1.476       .  S
C348        C473   1.483       .  S
C349        O350   1.264       .  A
C349        C413   1.482       .  S
O351        C366   1.257       .  A
O351       Al359   1.893       .  S
C352        O362   1.259       .  A
C352        O353   1.260       .  A
C352        C453   1.478       .  S
O353       Al355   1.913       .  S
O354        C356   1.261       .  A
O354       Al355   1.890       .  S
Al355       O363   1.893       .  S
Al355       O365   1.917       .  S
Al355       O364   1.785       .  S
C356        O369   1.267       .  A
C356        C433   1.483       .  S
O357        C367   1.258       .  A
O357       Al359   1.887       .  S
O358        C371   1.259       .  A
O358       Al368   1.896       .  S
Al359       O372   1.909       .  S
Al359       O369   1.924       .  S
Al359       O364   1.784       .  S
O360        C367   1.263       .  A
O360       Al368   1.913       .  S
O361        C370   1.267       .  A
O361       Al368   1.921       .  S
O362       Al368   1.899       .  S
O363        C370   1.262       .  A
O364       Al368   1.782       .  S
O365        C366   1.261       .  A
C366        C424   1.473       .  S
C367        C384   1.474       .  S
C370        C484   1.480       .  S
C371        O372   1.262       .  A
C371        C393   1.478       .  S
C373        C374   1.409       .  A
C373        C378   1.402       .  A
C374        C375   1.399       .  A
C374       Br390   1.919       .  S
C375        C376   1.402       .  A
C375       H1035   1.082   1_455  S
C376       C1200   1.475   1_455  S
C376        C541   1.408       .  A
C377        C540   1.408       .  A
C377        C542   1.397       .  A
C377       Br389   1.919   1_556  S
C378        C541   1.398       .  A
C378        H381   1.083       .  S
H379       C1031   1.083       .  S
C380       C1196   1.475   1_554  S
C380        C382   1.401       .  A
C380        C386   1.407       .  A
C382        C383   1.399       .  A
C382       H1043   1.083       .  S
C383        C384   1.413       .  A
C383       Br391   1.921       .  S
C384        C385   1.404       .  A
C385        C386   1.397       .  A
C385        H388   1.083       .  S
C386       Br556   1.919   1_554  S
H387       C1038   1.083   1_455  S
Br392       C550   1.919       .  S
C393        C394   1.414       .  A
C393        C398   1.405       .  A
C394        C395   1.400       .  A
C394       Br410   1.920       .  S
C395        C396   1.401       .  A
C395       H1055   1.084       .  S
C396       C1056   1.476       .  S
C396        C397   1.407       .  A
C397        C398   1.397       .  A
C397       Br409   1.920       .  S
C398        H401   1.084       .  S
H399       C1051   1.084       .  S
C400       C1052   1.476   1_455  S
C400        C402   1.402       .  A
C400        C406   1.409       .  A
C402        C403   1.399       .  A
C402       H1063   1.083   1_455  S
C403        C404   1.408       .  A
C403       Br411   1.919       .  S
C404        C405   1.402       .  A
C405        C406   1.398       .  A
C405        H408   1.082       .  S
C406       Br412   1.919       .  S
H407       C1058   1.083       .  S
C413        C414   1.416       .  A
C413        C418   1.407       .  A
C414        C415   1.398       .  A
C414       Br430   1.922       .  S
C415        C416   1.401       .  A
C415        H419   1.084       .  S
C416        C417   1.406       .  A
C417        C418   1.398       .  A
C418        H421   1.083       .  S
C420        C422   1.403       .  A
C420        C426   1.408       .  A
C422        C423   1.400       .  A
C422        H427   1.085       .  S
C423        C424   1.410       .  A
C423       Br431   1.919       .  S
C424        C425   1.403       .  A
C425        C426   1.396       .  A
C425        H428   1.084       .  S
C433        C434   1.415       .  A
C433        C438   1.408       .  A
C434        C599   1.399       .  A
C434       Br614   1.923       .  S
C435        C598   1.399       .  A
C435        C600   1.402       .  A
C435        H439   1.084       .  S
C436        C599   1.402       .  A
C436        C437   1.406       .  A
C437        C438   1.398       .  A
C438        H441   1.084       .  S
C440        C442   1.401       .  A
C440        C446   1.410       .  A
C442        C443   1.398       .  A
C442        H611   1.084   1_565  S
C443        C444   1.413       .  A
C443       Br451   1.922       .  S
C444        C445   1.404       .  A
C445        C446   1.401       .  A
C445        H448   1.084       .  S
H447        C606   1.084   1_545  S
Br450       C598   1.923       .  S
C453        C454   1.415       .  A
C453        C458   1.405       .  A
C454        C455   1.398       .  A
C454       Br470   1.922       .  S
C455        C456   1.400       .  A
C455        H459   1.082       .  S
C456        C624   1.477   1_554  S
C456        C457   1.408       .  A
C457        C458   1.400       .  A
C457       Br633   1.918   1_554  S
C458        H461   1.084       .  S
C460        C620   1.478       .  S
C460        C462   1.401       .  A
C460        C466   1.405       .  A
C462        C463   1.400       .  A
C462        H631   1.084       .  S
C463        C464   1.416       .  A
C463       Br471   1.923       .  S
C464        C465   1.408       .  A
C465        C466   1.399       .  A
C465        H468   1.084       .  S
C466       Br472   1.919       .  S
H467        C626   1.084   1_554  S
Br469       C621   1.918       .  S
C473        C474   1.416       .  A
C473        C478   1.408       .  A
C474        C475   1.396       .  A
C474       Br490   1.922       .  S
C475        C476   1.398       .  A
C475        H479   1.086       .  S
C476        C480   1.474       .  S
C476        C477   1.406       .  A
C477        C478   1.400       .  A
C477       Br489   1.918       .  S
C478        H481   1.084       .  S
C480        C482   1.401       .  A
C480        C486   1.404       .  A
C482        C483   1.399       .  A
C482        H487   1.084       .  S
C483        C484   1.414       .  A
C483       Br491   1.921       .  S
C484        C485   1.408       .  A
C485        C486   1.397       .  A
C485        H488   1.084       .  S
C486       Br492   1.918       .  S
O493        C508   1.259       .  A
O493       Al501   1.889       .  S
C494        O504   1.262       .  A
C494        O495   1.267       .  A
C494        C628   1.482       .  S
O495       Al497   1.922       .  S
O496        C498   1.258       .  A
O496       Al497   1.892       .  S
Al497       O505   1.895       .  S
Al497       O507   1.903       .  S
Al497       O506   1.788       .  S
C498        O511   1.259       .  A
C498        C537   1.469       .  S
O499        C509   1.258       .  A
O499       Al501   1.900       .  S
O500        C513   1.263       .  A
O500       Al510   1.893       .  S
Al501       O514   1.920       .  S
Al501       O511   1.901       .  S
Al501       O506   1.786       .  S
O502        C509   1.259       .  A
O502       Al510   1.911       .  S
O503        C512   1.258       .  A
O503       Al510   1.907       .  S
O504       Al510   1.889       .  S
O505        C512   1.256       .  A
O506       Al510   1.786       .  S
O507        C508   1.261       .  A
C508        C568   1.465       .  S
C509        C608   1.476       .  S
C512        C637   1.481       .  S
C513        O514   1.264       .  A
C513        C577   1.483       .  S
O515        C530   1.257       .  A
O515       Al523   1.893       .  S
C516        O526   1.259       .  A
C516        O517   1.260       .  A
C516        C617   1.478       .  S
O517       Al519   1.913       .  S
O518        C520   1.261       .  A
O518       Al519   1.891       .  S
Al519       O527   1.893       .  S
Al519       O529   1.916       .  S
Al519       O528   1.785       .  S
C520        O533   1.266       .  A
C520        C597   1.483       .  S
O521        C531   1.259       .  A
O521       Al523   1.889       .  S
O522        C535   1.259       .  A
O522       Al532   1.896       .  S
Al523       O536   1.907       .  S
Al523       O533   1.923       .  S
Al523       O528   1.784       .  S
O524        C531   1.263       .  A
O524       Al532   1.913       .  S
O525        C534   1.266       .  A
O525       Al532   1.920       .  S
O526       Al532   1.901       .  S
O527        C534   1.262       .  A
O528       Al532   1.783       .  S
O529        C530   1.261       .  A
C530        C588   1.473       .  S
C531        C548   1.475       .  S
C534        C648   1.482       .  S
C535        O536   1.261       .  A
C535        C557   1.477       .  S
C537        C538   1.409       .  A
C537        C542   1.402       .  A
C538        C539   1.399       .  A
C538       Br554   1.919       .  S
C539        C540   1.402       .  A
C539       H1199   1.082   1_455  S
C540       C1036   1.475   1_456  S
C541       Br553   1.919       .  S
C542        H545   1.084       .  S
H543       C1195   1.082       .  S
C544       C1032   1.475       .  S
C544        C546   1.401       .  A
C544        C550   1.407       .  A
C546        C547   1.399       .  A
C546       H1207   1.083       .  S
C547        C548   1.413       .  A
C547       Br555   1.920       .  S
C548        C549   1.404       .  A
C549        C550   1.398       .  A
C549        H552   1.083       .  S
H551       C1202   1.083   1_455  S
C557        C558   1.413       .  A
C557        C562   1.405       .  A
C558        C559   1.399       .  A
C558       Br574   1.920       .  S
C559        C560   1.400       .  A
C559       H1219   1.085       .  S
C560       C1220   1.475       .  S
C560        C561   1.407       .  A
C561        C562   1.397       .  A
C561       Br573   1.920       .  S
C562        H565   1.084       .  S
H563       C1215   1.085       .  S
C564       C1216   1.475   1_455  S
C564        C566   1.402       .  A
C564        C570   1.409       .  A
C566        C567   1.398       .  A
C566       H1227   1.083   1_455  S
C567        C568   1.408       .  A
C567       Br575   1.919       .  S
C568        C569   1.402       .  A
C569        C570   1.398       .  A
C569        H572   1.082       .  S
C570       Br576   1.919       .  S
H571       C1222   1.083       .  S
C577        C578   1.417       .  A
C577        C582   1.408       .  A
C578        C579   1.398       .  A
C578       Br594   1.922       .  S
C579        C580   1.400       .  A
C579        H583   1.084       .  S
C580        C581   1.406       .  A
C581        C582   1.398       .  A
C582        H585   1.083       .  S
C584        C586   1.403       .  A
C584        C590   1.407       .  A
C586        C587   1.399       .  A
C586        H591   1.084       .  S
C587        C588   1.410       .  A
C587       Br595   1.919       .  S
C588        C589   1.404       .  A
C589        C590   1.396       .  A
C589        H592   1.084       .  S
C597        C598   1.415       .  A
C597        C602   1.408       .  A
C599        H603   1.084   1_554  S
C600        C601   1.406       .  A
C601        C602   1.398       .  A
C602        H605   1.083       .  S
C604        C606   1.400       .  A
C604        C610   1.409   1_556  A
C606        C607   1.397       .  A
C607        C608   1.413       .  A
C607       Br615   1.922       .  S
C608        C609   1.404       .  A
C609        C610   1.401   1_556  A
C609        H612   1.084       .  S
C617        C618   1.415       .  A
C617        C622   1.404       .  A
C618        C619   1.399       .  A
C618       Br634   1.922       .  S
C619        C620   1.400       .  A
C619        H623   1.083       .  S
C620        C621   1.408       .  A
C621        C622   1.400       .  A
C622        H625   1.084       .  S
C624        C626   1.401       .  A
C624        C630   1.405       .  A
C626        C627   1.400       .  A
C627        C628   1.416       .  A
C627       Br635   1.923       .  S
C628        C629   1.407       .  A
C629        C630   1.398       .  A
C629        H632   1.084       .  S
C630       Br636   1.919       .  S
C637        C638   1.416       .  A
C637        C642   1.408       .  A
C638        C639   1.396       .  A
C638       Br654   1.922       .  S
C639        C640   1.398       .  A
C639        H643   1.086       .  S
C640        C644   1.474       .  S
C640        C641   1.406       .  A
C641        C642   1.400       .  A
C641       Br653   1.918       .  S
C642        H645   1.084       .  S
C644        C646   1.401       .  A
C644        C650   1.404       .  A
C646        C647   1.399       .  A
C646        H651   1.084       .  S
C647        C648   1.415       .  A
C647       Br655   1.922       .  S
C648        C649   1.408       .  A
C649        C650   1.397       .  A
C649        H652   1.083       .  S
C650       Br656   1.918       .  S
O657        C672   1.259       .  A
O657       Al665   1.890       .  S
C658        O668   1.262       .  A
C658        O659   1.267       .  A
C658        C792   1.483       .  S
O659       Al661   1.924       .  S
O660        C662   1.258       .  A
O660       Al661   1.892       .  S
Al661       O669   1.895       .  S
Al661       O671   1.904       .  S
Al661       O670   1.789       .  S
C662        O675   1.259       .  A
C662        C701   1.469       .  S
O663        C673   1.258       .  A
O663       Al665   1.900       .  S
O664        C677   1.263       .  A
O664       Al674   1.893       .  S
Al665       O678   1.921       .  S
Al665       O675   1.901       .  S
Al665       O670   1.787       .  S
O666        C673   1.259       .  A
O666       Al674   1.912       .  S
O667        C676   1.257       .  A
O667       Al674   1.907       .  S
O668       Al674   1.890       .  S
O669        C676   1.256       .  A
O670       Al674   1.787       .  S
O671        C672   1.261       .  A
C672        C732   1.467       .  S
C673        C772   1.476       .  S
C676        C801   1.483       .  S
C677        O678   1.264       .  A
C677        C741   1.482       .  S
O679        C694   1.257       .  A
O679       Al687   1.893       .  S
C680        O690   1.259       .  A
C680        O681   1.260       .  A
C680        C781   1.478       .  S
O681       Al683   1.913       .  S
O682        C684   1.261       .  A
O682       Al683   1.890       .  S
Al683       O691   1.893       .  S
Al683       O693   1.917       .  S
Al683       O692   1.785       .  S
C684        O697   1.267       .  A
C684        C761   1.483       .  S
O685        C695   1.258       .  A
O685       Al687   1.887       .  S
O686        C699   1.259       .  A
O686       Al696   1.896       .  S
Al687       O700   1.909       .  S
Al687       O697   1.924       .  S
Al687       O692   1.784       .  S
O688        C695   1.263       .  A
O688       Al696   1.913       .  S
O689        C698   1.267       .  A
O689       Al696   1.921       .  S
O690       Al696   1.899       .  S
O691        C698   1.262       .  A
O692       Al696   1.782       .  S
O693        C694   1.261       .  A
C694        C752   1.473       .  S
C695        C712   1.474       .  S
C698        C812   1.480       .  S
C699        O700   1.262       .  A
C699        C721   1.478       .  S
C701        C702   1.409       .  A
C701        C706   1.402       .  A
C702        C703   1.399       .  A
C702       Br718   1.919       .  S
C703        C704   1.402       .  A
C704        C869   1.408       .  A
C705        C868   1.408       .  A
C705        C870   1.397       .  A
C705       Br717   1.919   1_556  S
C706        C869   1.398       .  A
C706        H709   1.083       .  S
C708        C710   1.401       .  A
C708        C714   1.407       .  A
C710        C711   1.399       .  A
C711        C712   1.413       .  A
C711       Br719   1.921       .  S
C712        C713   1.404       .  A
C713        C714   1.398       .  A
C713        H716   1.083       .  S
C714       Br884   1.919   1_554  S
Br720       C878   1.919       .  S
C721        C722   1.414       .  A
C721        C726   1.405       .  A
C722        C723   1.400       .  A
C722       Br738   1.920       .  S
C723        C724   1.401       .  A
C724        C725   1.407       .  A
C725        C726   1.397       .  A
C725       Br737   1.920       .  S
C726        H729   1.084       .  S
C728        C730   1.402       .  A
C728        C734   1.409       .  A
C730        C731   1.399       .  A
C731        C732   1.408       .  A
C731       Br739   1.919       .  S
C732        C733   1.402       .  A
C733        C734   1.398       .  A
C733        H736   1.082       .  S
C734       Br740   1.919       .  S
C741        C742   1.416       .  A
C741        C746   1.407       .  A
C742        C743   1.398       .  A
C742       Br758   1.922       .  S
C743        C744   1.401       .  A
C743        H747   1.084       .  S
C744       C1076   1.478       .  S
C744        C745   1.406       .  A
C745        C746   1.398       .  A
C745      Br1085   1.919       .  S
C746        H749   1.084       .  S
C748       C1072   1.478   1_545  S
C748        C750   1.403       .  A
C748        C754   1.408       .  A
C750        C751   1.400       .  A
C750        H755   1.085       .  S
C751        C752   1.410       .  A
C751       Br759   1.919       .  S
C752        C753   1.403       .  A
C753        C754   1.396       .  A
C753        H756   1.084       .  S
C754      Br1088   1.920   1_545  S
Br757      C1073   1.919       .  S
Br760      C1082   1.920       .  S
C761        C762   1.416       .  A
C761        C766   1.408       .  A
C762        C927   1.399       .  A
C762       Br942   1.923       .  S
C763        C926   1.399       .  A
C763        C928   1.402       .  A
C763        H767   1.084       .  S
C764       C1260   1.478   1_544  S
C764        C927   1.401       .  A
C764        C765   1.406       .  A
C765        C766   1.398       .  A
C765      Br1105   1.919   1_545  S
C766        H769   1.084       .  S
C768       C1256   1.479       .  S
C768        C770   1.401       .  A
C768        C774   1.410       .  A
C770        C771   1.398       .  A
C770        H939   1.084       .  S
C771        C772   1.413       .  A
C771       Br779   1.922       .  S
C772        C773   1.404       .  A
C773        C774   1.401       .  A
C773        H776   1.084       .  S
C774      Br1108   1.919       .  S
H775        C934   1.084       .  S
Br777      C1093   1.919       .  S
Br778       C926   1.923       .  S
Br780      C1102   1.919       .  S
C781        C782   1.415       .  A
C781        C786   1.405       .  A
C782        C783   1.398       .  A
C782       Br798   1.922       .  S
C783        C784   1.400       .  A
C783        H787   1.082       .  S
C784        C952   1.477   1_554  S
C784        C785   1.408       .  A
C785        C786   1.400       .  A
C785       Br961   1.918   1_554  S
C786        H789   1.084       .  S
C788        C948   1.478       .  S
C788        C790   1.401       .  A
C788        C794   1.405       .  A
C790        C791   1.400       .  A
C790        H959   1.084       .  S
C791        C792   1.416       .  A
C791       Br799   1.923       .  S
C792        C793   1.408       .  A
C793        C794   1.399       .  A
C793        H796   1.084       .  S
C794       Br800   1.919       .  S
H795        C954   1.084   1_554  S
Br797       C949   1.918       .  S
C801        C802   1.416       .  A
C801        C806   1.408       .  A
C802        C803   1.396       .  A
C802       Br818   1.922       .  S
C803        C804   1.398       .  A
C803        H807   1.086       .  S
C804        C808   1.474       .  S
C804        C805   1.406       .  A
C805        C806   1.400       .  A
C805       Br817   1.918       .  S
C806        H809   1.084       .  S
C808        C810   1.401       .  A
C808        C814   1.404       .  A
C810        C811   1.399       .  A
C810        H815   1.084       .  S
C811        C812   1.414       .  A
C811       Br819   1.921       .  S
C812        C813   1.408       .  A
C813        C814   1.397       .  A
C813        H816   1.084       .  S
C814       Br820   1.918       .  S
O821        C836   1.259       .  A
O821       Al829   1.889       .  S
C822        O832   1.262       .  A
C822        O823   1.267       .  A
C822        C956   1.482       .  S
O823       Al825   1.922       .  S
O824        C826   1.258       .  A
O824       Al825   1.892       .  S
Al825       O833   1.895       .  S
Al825       O835   1.903       .  S
Al825       O834   1.788       .  S
C826        O839   1.259       .  A
C826        C865   1.469       .  S
O827        C837   1.258       .  A
O827       Al829   1.900       .  S
O828        C841   1.263       .  A
O828       Al838   1.893       .  S
Al829       O842   1.920       .  S
Al829       O839   1.901       .  S
Al829       O834   1.786       .  S
O830        C837   1.259       .  A
O830       Al838   1.911       .  S
O831        C840   1.258       .  A
O831       Al838   1.907       .  S
O832       Al838   1.889       .  S
O833        C840   1.256       .  A
O834       Al838   1.786       .  S
O835        C836   1.261       .  A
C836        C896   1.465       .  S
C837        C936   1.476       .  S
C840        C965   1.481       .  S
C841        O842   1.264       .  A
C841        C905   1.483       .  S
O843        C858   1.257       .  A
O843       Al851   1.893       .  S
C844        O854   1.259       .  A
C844        O845   1.260       .  A
C844        C945   1.478       .  S
O845       Al847   1.913       .  S
O846        C848   1.261       .  A
O846       Al847   1.891       .  S
Al847       O855   1.893       .  S
Al847       O857   1.916       .  S
Al847       O856   1.785       .  S
C848        O861   1.266       .  A
C848        C925   1.483       .  S
O849        C859   1.259       .  A
O849       Al851   1.889       .  S
O850        C863   1.259       .  A
O850       Al860   1.896       .  S
Al851       O864   1.907       .  S
Al851       O861   1.923       .  S
Al851       O856   1.784       .  S
O852        C859   1.263       .  A
O852       Al860   1.913       .  S
O853        C862   1.266       .  A
O853       Al860   1.920       .  S
O854       Al860   1.901       .  S
O855        C862   1.262       .  A
O856       Al860   1.783       .  S
O857        C858   1.261       .  A
C858        C916   1.473       .  S
C859        C876   1.475       .  S
C862        C976   1.482       .  S
C863        O864   1.261       .  A
C863        C885   1.477       .  S
C865        C866   1.409       .  A
C865        C870   1.402       .  A
C866        C867   1.399       .  A
C866       Br882   1.919       .  S
C867        C868   1.402       .  A
C869       Br881   1.919       .  S
C870        H873   1.084       .  S
C872        C874   1.401       .  A
C872        C878   1.407       .  A
C874        C875   1.399       .  A
C875        C876   1.413       .  A
C875       Br883   1.920       .  S
C876        C877   1.404       .  A
C877        C878   1.398       .  A
C877        H880   1.083       .  S
C885        C886   1.413       .  A
C885        C890   1.405       .  A
C886        C887   1.399       .  A
C886       Br902   1.920       .  S
C887        C888   1.400       .  A
C888        C889   1.407       .  A
C889        C890   1.397       .  A
C889       Br901   1.920       .  S
C890        H893   1.084       .  S
C892        C894   1.402       .  A
C892        C898   1.409       .  A
C894        C895   1.398       .  A
C895        C896   1.408       .  A
C895       Br903   1.919       .  S
C896        C897   1.402       .  A
C897        C898   1.398       .  A
C897        H900   1.082       .  S
C898       Br904   1.919       .  S
C905        C906   1.417       .  A
C905        C910   1.408       .  A
C906        C907   1.398       .  A
C906       Br922   1.922       .  S
C907        C908   1.400       .  A
C907        H911   1.084       .  S
C908       C1240   1.476       .  S
C908        C909   1.406       .  A
C909        C910   1.398       .  A
C909      Br1249   1.919       .  S
C910        H913   1.083       .  S
C912       C1236   1.476   1_545  S
C912        C914   1.403       .  A
C912        C918   1.407       .  A
C914        C915   1.399       .  A
C914        H919   1.084       .  S
C915        C916   1.410       .  A
C915       Br923   1.919       .  S
C916        C917   1.404       .  A
C917        C918   1.396       .  A
C917        H920   1.084       .  S
C918      Br1252   1.920   1_545  S
Br921      C1237   1.919       .  S
Br924      C1246   1.920       .  S
C925        C926   1.415       .  A
C925        C930   1.408       .  A
C927        H931   1.084   1_554  S
C928       C1096   1.479   1_545  S
C928        C929   1.406       .  A
C929        C930   1.398       .  A
C929      Br1269   1.919   1_545  S
C930        H933   1.083       .  S
C932       C1092   1.478   1_556  S
C932        C934   1.400       .  A
C932        C938   1.409   1_556  A
C934        C935   1.397       .  A
C935        C936   1.413       .  A
C935       Br943   1.922       .  S
C936        C937   1.404       .  A
C937        C938   1.401   1_556  A
C937        H940   1.084       .  S
C938      Br1272   1.919       .  S
Br941      C1257   1.919       .  S
Br944      C1266   1.919       .  S
C945        C946   1.415       .  A
C945        C950   1.404       .  A
C946        C947   1.399       .  A
C946       Br962   1.922       .  S
C947        C948   1.400       .  A
C947        H951   1.082       .  S
C948        C949   1.408       .  A
C949        C950   1.400       .  A
C950        H953   1.083       .  S
C952        C954   1.401       .  A
C952        C958   1.405       .  A
C954        C955   1.400       .  A
C955        C956   1.416       .  A
C955       Br963   1.923       .  S
C956        C957   1.407       .  A
C957        C958   1.398       .  A
C957        H960   1.084       .  S
C958       Br964   1.919       .  S
C965        C966   1.416       .  A
C965        C970   1.408       .  A
C966        C967   1.396       .  A
C966       Br982   1.922       .  S
C967        C968   1.398       .  A
C967        H971   1.086       .  S
C968        C972   1.474       .  S
C968        C969   1.406       .  A
C969        C970   1.400       .  A
C969       Br981   1.918       .  S
C970        H973   1.084       .  S
C972        C974   1.401       .  A
C972        C978   1.404       .  A
C974        C975   1.399       .  A
C974        H979   1.084       .  S
C975        C976   1.415       .  A
C975       Br983   1.922       .  S
C976        C977   1.408       .  A
C977        C978   1.397       .  A
C977        H980   1.083       .  S
C978       Br984   1.918       .  S
O985       C1000   1.259       .  A
O985       Al993   1.890       .  S
C986        O996   1.262       .  A
C986        O987   1.267       .  A
C986       C1120   1.483       .  S
O987       Al989   1.924       .  S
O988        C990   1.258       .  A
O988       Al989   1.892       .  S
Al989       O997   1.895       .  S
Al989       O999   1.904       .  S
Al989       O998   1.789       .  S
C990       O1003   1.259       .  A
C990       C1029   1.469       .  S
O991       C1001   1.258       .  A
O991       Al993   1.900       .  S
O992       C1005   1.263       .  A
O992      Al1002   1.893       .  S
Al993      O1006   1.921       .  S
Al993      O1003   1.901       .  S
Al993       O998   1.787       .  S
O994       C1001   1.259       .  A
O994      Al1002   1.912       .  S
O995       C1004   1.257       .  A
O995      Al1002   1.907       .  S
O996      Al1002   1.890       .  S
O997       C1004   1.256       .  A
O998      Al1002   1.787       .  S
O999       C1000   1.261       .  A
C1000      C1060   1.467       .  S
C1001      C1100   1.476       .  S
C1004      C1129   1.483       .  S
C1005      O1006   1.264       .  A
C1005      C1069   1.482       .  S
O1007      C1022   1.257       .  A
O1007     Al1015   1.893       .  S
C1008      O1018   1.259       .  A
C1008      O1009   1.260       .  A
C1008      C1109   1.478       .  S
O1009     Al1011   1.913       .  S
O1010      C1012   1.261       .  A
O1010     Al1011   1.890       .  S
Al1011     O1019   1.893       .  S
Al1011     O1021   1.917       .  S
Al1011     O1020   1.785       .  S
C1012      O1025   1.267       .  A
C1012      C1089   1.483       .  S
O1013      C1023   1.258       .  A
O1013     Al1015   1.887       .  S
O1014      C1027   1.259       .  A
O1014     Al1024   1.896       .  S
Al1015     O1028   1.909       .  S
Al1015     O1025   1.924       .  S
Al1015     O1020   1.784       .  S
O1016      C1023   1.263       .  A
O1016     Al1024   1.913       .  S
O1017      C1026   1.267       .  A
O1017     Al1024   1.921       .  S
O1018     Al1024   1.899       .  S
O1019      C1026   1.262       .  A
O1020     Al1024   1.782       .  S
O1021      C1022   1.261       .  A
C1022      C1080   1.473       .  S
C1023      C1040   1.474       .  S
C1026      C1140   1.480       .  S
C1027      O1028   1.262       .  A
C1027      C1049   1.478       .  S
C1029      C1030   1.409       .  A
C1029      C1034   1.402       .  A
C1030      C1031   1.399       .  A
C1030     Br1046   1.919       .  S
C1031      C1032   1.402       .  A
C1032      C1197   1.408       .  A
C1033      C1196   1.408       .  A
C1033      C1198   1.397       .  A
C1033     Br1045   1.919   1_556  S
C1034      C1197   1.398       .  A
C1034      H1037   1.083       .  S
C1036      C1038   1.401       .  A
C1036      C1042   1.407       .  A
C1038      C1039   1.399       .  A
C1039      C1040   1.413       .  A
C1039     Br1047   1.921       .  S
C1040      C1041   1.404       .  A
C1041      C1042   1.397       .  A
C1041      H1044   1.083       .  S
C1042     Br1212   1.919   1_554  S
Br1048     C1206   1.919       .  S
C1049      C1050   1.414       .  A
C1049      C1054   1.405       .  A
C1050      C1051   1.400       .  A
C1050     Br1066   1.920       .  S
C1051      C1052   1.401       .  A
C1052      C1053   1.407       .  A
C1053      C1054   1.397       .  A
C1053     Br1065   1.920       .  S
C1054      H1057   1.084       .  S
C1056      C1058   1.402       .  A
C1056      C1062   1.409       .  A
C1058      C1059   1.399       .  A
C1059      C1060   1.408       .  A
C1059     Br1067   1.919       .  S
C1060      C1061   1.402       .  A
C1061      C1062   1.398       .  A
C1061      H1064   1.082       .  S
C1062     Br1068   1.919       .  S
C1069      C1070   1.416       .  A
C1069      C1074   1.407       .  A
C1070      C1071   1.398       .  A
C1070     Br1086   1.922       .  S
C1071      C1072   1.401       .  A
C1071      H1075   1.084       .  S
C1072      C1073   1.406       .  A
C1073      C1074   1.398       .  A
C1074      H1077   1.084       .  S
C1076      C1078   1.403       .  A
C1076      C1082   1.408       .  A
C1078      C1079   1.400       .  A
C1078      H1083   1.085       .  S
C1079      C1080   1.410       .  A
C1079     Br1087   1.919       .  S
C1080      C1081   1.403       .  A
C1081      C1082   1.396       .  A
C1081      H1084   1.084       .  S
C1089      C1090   1.415       .  A
C1089      C1094   1.408       .  A
C1090      C1255   1.399       .  A
C1090     Br1270   1.923       .  S
C1091      C1254   1.399       .  A
C1091      C1256   1.402       .  A
C1091      H1095   1.084       .  S
C1092      C1255   1.401       .  A
C1092      C1093   1.406       .  A
C1093      C1094   1.398       .  A
C1094      H1097   1.083       .  S
C1096      C1098   1.401       .  A
C1096      C1102   1.410       .  A
C1098      C1099   1.398       .  A
C1098      H1267   1.084   1_565  S
C1099      C1100   1.413       .  A
C1099     Br1107   1.922       .  S
C1100      C1101   1.404       .  A
C1101      C1102   1.401       .  A
C1101      H1104   1.084       .  S
H1103      C1262   1.084   1_545  S
Br1106     C1254   1.923       .  S
C1109      C1110   1.415       .  A
C1109      C1114   1.405       .  A
C1110      C1111   1.398       .  A
C1110     Br1126   1.922       .  S
C1111      C1112   1.400       .  A
C1111      H1115   1.082       .  S
C1112      C1280   1.477   1_554  S
C1112      C1113   1.408       .  A
C1113      C1114   1.400       .  A
C1113     Br1289   1.918   1_554  S
C1114      H1117   1.084       .  S
C1116      C1276   1.478       .  S
C1116      C1118   1.401       .  A
C1116      C1122   1.405       .  A
C1118      C1119   1.400       .  A
C1118      H1287   1.084       .  S
C1119      C1120   1.416       .  A
C1119     Br1127   1.923       .  S
C1120      C1121   1.408       .  A
C1121      C1122   1.399       .  A
C1121      H1124   1.084       .  S
C1122     Br1128   1.919       .  S
H1123      C1282   1.084   1_554  S
Br1125     C1277   1.918       .  S
C1129      C1130   1.416       .  A
C1129      C1134   1.408       .  A
C1130      C1131   1.396       .  A
C1130     Br1146   1.922       .  S
C1131      C1132   1.398       .  A
C1131      H1135   1.086       .  S
C1132      C1136   1.474       .  S
C1132      C1133   1.406       .  A
C1133      C1134   1.400       .  A
C1133     Br1145   1.918       .  S
C1134      H1137   1.084       .  S
C1136      C1138   1.401       .  A
C1136      C1142   1.404       .  A
C1138      C1139   1.399       .  A
C1138      H1143   1.084       .  S
C1139      C1140   1.414       .  A
C1139     Br1147   1.921       .  S
C1140      C1141   1.408       .  A
C1141      C1142   1.397       .  A
C1141      H1144   1.084       .  S
C1142     Br1148   1.918       .  S
O1149      C1164   1.259       .  A
O1149     Al1157   1.889       .  S
C1150      O1160   1.262       .  A
C1150      O1151   1.267       .  A
C1150      C1284   1.482       .  S
O1151     Al1153   1.922       .  S
O1152      C1154   1.258       .  A
O1152     Al1153   1.892       .  S
Al1153     O1161   1.895       .  S
Al1153     O1163   1.903       .  S
Al1153     O1162   1.788       .  S
C1154      O1167   1.259       .  A
C1154      C1193   1.469       .  S
O1155      C1165   1.258       .  A
O1155     Al1157   1.900       .  S
O1156      C1169   1.263       .  A
O1156     Al1166   1.893       .  S
Al1157     O1170   1.920       .  S
Al1157     O1167   1.901       .  S
Al1157     O1162   1.786       .  S
O1158      C1165   1.259       .  A
O1158     Al1166   1.911       .  S
O1159      C1168   1.258       .  A
O1159     Al1166   1.907       .  S
O1160     Al1166   1.889       .  S
O1161      C1168   1.256       .  A
O1162     Al1166   1.786       .  S
O1163      C1164   1.261       .  A
C1164      C1224   1.465       .  S
C1165      C1264   1.476       .  S
C1168      C1293   1.481       .  S
C1169      O1170   1.264       .  A
C1169      C1233   1.483       .  S
O1171      C1186   1.257       .  A
O1171     Al1179   1.893       .  S
C1172      O1182   1.259       .  A
C1172      O1173   1.260       .  A
C1172      C1273   1.478       .  S
O1173     Al1175   1.913       .  S
O1174      C1176   1.261       .  A
O1174     Al1175   1.891       .  S
Al1175     O1183   1.893       .  S
Al1175     O1185   1.916       .  S
Al1175     O1184   1.785       .  S
C1176      O1189   1.266       .  A
C1176      C1253   1.483       .  S
O1177      C1187   1.259       .  A
O1177     Al1179   1.889       .  S
O1178      C1191   1.259       .  A
O1178     Al1188   1.896       .  S
Al1179     O1192   1.907       .  S
Al1179     O1189   1.923       .  S
Al1179     O1184   1.784       .  S
O1180      C1187   1.263       .  A
O1180     Al1188   1.913       .  S
O1181      C1190   1.266       .  A
O1181     Al1188   1.920       .  S
O1182     Al1188   1.901       .  S
O1183      C1190   1.262       .  A
O1184     Al1188   1.783       .  S
O1185      C1186   1.261       .  A
C1186      C1244   1.473       .  S
C1187      C1204   1.475       .  S
C1190      C1304   1.482       .  S
C1191      O1192   1.261       .  A
C1191      C1213   1.477       .  S
C1193      C1194   1.409       .  A
C1193      C1198   1.402       .  A
C1194      C1195   1.399       .  A
C1194     Br1210   1.919       .  S
C1195      C1196   1.402       .  A
C1197     Br1209   1.919       .  S
C1198      H1201   1.084       .  S
C1200      C1202   1.401       .  A
C1200      C1206   1.407       .  A
C1202      C1203   1.399       .  A
C1203      C1204   1.413       .  A
C1203     Br1211   1.920       .  S
C1204      C1205   1.404       .  A
C1205      C1206   1.398       .  A
C1205      H1208   1.083       .  S
C1213      C1214   1.413       .  A
C1213      C1218   1.405       .  A
C1214      C1215   1.399       .  A
C1214     Br1230   1.920       .  S
C1215      C1216   1.400       .  A
C1216      C1217   1.407       .  A
C1217      C1218   1.397       .  A
C1217     Br1229   1.920       .  S
C1218      H1221   1.084       .  S
C1220      C1222   1.402       .  A
C1220      C1226   1.409       .  A
C1222      C1223   1.398       .  A
C1223      C1224   1.408       .  A
C1223     Br1231   1.919       .  S
C1224      C1225   1.402       .  A
C1225      C1226   1.398       .  A
C1225      H1228   1.082       .  S
C1226     Br1232   1.919       .  S
C1233      C1234   1.417       .  A
C1233      C1238   1.408       .  A
C1234      C1235   1.398       .  A
C1234     Br1250   1.922       .  S
C1235      C1236   1.400       .  A
C1235      H1239   1.084       .  S
C1236      C1237   1.406       .  A
C1237      C1238   1.398       .  A
C1238      H1241   1.083       .  S
C1240      C1242   1.403       .  A
C1240      C1246   1.407       .  A
C1242      C1243   1.399       .  A
C1242      H1247   1.085       .  S
C1243      C1244   1.410       .  A
C1243     Br1251   1.919       .  S
C1244      C1245   1.404       .  A
C1245      C1246   1.396       .  A
C1245      H1248   1.084       .  S
C1253      C1254   1.415       .  A
C1253      C1258   1.408       .  A
C1255      H1259   1.084   1_554  S
C1256      C1257   1.406       .  A
C1257      C1258   1.398       .  A
C1258      H1261   1.084       .  S
C1260      C1262   1.400       .  A
C1260      C1266   1.409   1_556  A
C1262      C1263   1.397       .  A
C1263      C1264   1.413       .  A
C1263     Br1271   1.922       .  S
C1264      C1265   1.404       .  A
C1265      C1266   1.401   1_556  A
C1265      H1268   1.084       .  S
C1273      C1274   1.415       .  A
C1273      C1278   1.404       .  A
C1274      C1275   1.399       .  A
C1274     Br1290   1.922       .  S
C1275      C1276   1.400       .  A
C1275      H1279   1.083       .  S
C1276      C1277   1.408       .  A
C1277      C1278   1.400       .  A
C1278      H1281   1.083       .  S
C1280      C1282   1.401       .  A
C1280      C1286   1.405       .  A
C1282      C1283   1.400       .  A
C1283      C1284   1.416       .  A
C1283     Br1291   1.923       .  S
C1284      C1285   1.407       .  A
C1285      C1286   1.398       .  A
C1285      H1288   1.083       .  S
C1286     Br1292   1.919       .  S
C1293      C1294   1.416       .  A
C1293      C1298   1.408       .  A
C1294      C1295   1.396       .  A
C1294     Br1310   1.922       .  S
C1295      C1296   1.398       .  A
C1295      H1299   1.086       .  S
C1296      C1300   1.474       .  S
C1296      C1297   1.406       .  A
C1297      C1298   1.400       .  A
C1297     Br1309   1.918       .  S
C1298      H1301   1.084       .  S
C1300      C1302   1.401       .  A
C1300      C1306   1.404       .  A
C1302      C1303   1.399       .  A
C1302      H1307   1.084       .  S
C1303      C1304   1.415       .  A
C1303     Br1311   1.922       .  S
C1304      C1305   1.408       .  A
C1305      C1306   1.397       .  A
C1305      H1308   1.083       .  S
C1306     Br1312   1.918       .  S
