geometry optimzed in LAMMPS
_audit_creation_date              2020-11-30 
_audit_creation_method            'lammps2cif' 
_symmetry_space_group_name_H-M    'P1' 
_symmetry_Int_Tables_number       1 
_symmetry_cell_setting            triclinic 
loop_ 
_symmetry_equiv_pos_as_xyz 
  x,y,z 
_cell_length_a                    48.20767375067766 
_cell_length_b                    48.24057721715424 
_cell_length_c                    48.26477438162481 
_cell_angle_alpha                 89.80710602127925 
_cell_angle_beta                  89.39342100450129 
_cell_angle_gamma                 90.25984123935908 
loop_ 
_atom_site_label 
_atom_site_type_symbol 
_atom_site_fract_x 
_atom_site_fract_y 
_atom_site_fract_z 
_atom_site_charge 
In1        In  0.12347519  0.32741943  0.92066999     1.36870
C2          C  0.17463546  0.34268401  0.90611722     0.77890
O3          O  0.12624605  0.36211851  0.95112537    -0.60550
O4          O  0.12208154  0.32123184  0.96676951    -0.51460
C5          C  0.07432116  0.34540986  0.90384873     0.70560
O6          O  0.09642991  0.35082589  0.89061511    -0.46320
C7          C  0.12045467  0.27515118  0.90409674     0.75260
O8          O  0.15336792  0.35380206  0.89589690    -0.58180
O9          O  0.11759177  0.28203384  0.92911327    -0.48270
O10         O  0.16941530  0.32338279  0.92312641    -0.54610
C11         C  0.12442144  0.34671776  0.97222931     0.85440
O12         O  0.07765897  0.33106418  0.92533821    -0.56500
O13         O  0.12567503  0.29481597  0.88760617    -0.59800
In14       In  0.15789658  0.39861570  0.13503169     1.36870
C15         C  0.14161312  0.38238719  0.08511400     0.77890
O16         O  0.12449290  0.43062290  0.13979354    -0.60550
O17         O  0.16530914  0.44409918  0.13017344    -0.51460
C18         C  0.14453776  0.38125302  0.18586402     0.70560
O19         O  0.13375757  0.37071679  0.16454552    -0.46320
C20         C  0.21033369  0.38180484  0.13379268     0.75260
O21         O  0.13078953  0.37268009  0.10707956    -0.58180
O22         O  0.20352843  0.40654681  0.13844200    -0.48270
O23         O  0.15974899  0.40078230  0.08904827    -0.54610
C24         C  0.14064680  0.45091133  0.13551214     0.85440
O25         O  0.16135339  0.40068221  0.18079646    -0.56500
O26         O  0.19005220  0.36558630  0.13045244    -0.59800
In27       In  0.12448018  0.82835360  0.10050879     1.36870
C28         C  0.07352075  0.84320313  0.11556326     0.77890
O29         O  0.13134037  0.86150642  0.06883769    -0.60550
O30         O  0.12135520  0.82119400  0.05456070    -0.51460
C31         C  0.17440016  0.84339387  0.11820468     0.70560
O32         O  0.15293069  0.85746011  0.12348012    -0.46320
C33         C  0.12305325  0.77693579  0.11957469     0.75260
O34         O  0.09480788  0.85330112  0.12687660    -0.58180
O35         O  0.12953623  0.78258553  0.09475468    -0.48270
O36         O  0.07876354  0.82660817  0.09611714    -0.54610
C37         C  0.12761271  0.84587976  0.04837287     0.85440
O38         O  0.16977241  0.82165136  0.10458543    -0.56500
O39         O  0.11782443  0.79765618  0.13461846    -0.59800
In40       In  0.08867696  0.61305358  0.17008110     1.36870
C41         C  0.10248116  0.66426711  0.15479162     0.77890
O42         O  0.05677263  0.61678719  0.13712073    -0.60550
O43         O  0.04305229  0.61028065  0.17869353    -0.51460
C44         C  0.10353306  0.56327180  0.15218287     0.70560
O45         O  0.11653289  0.58501686  0.14500418    -0.46320
C46         C  0.10770797  0.61129257  0.22145304     0.75260
O47         O  0.11116255  0.64330840  0.14169853    -0.58180
O48         O  0.08243220  0.61494681  0.21604859    -0.48270
O49         O  0.08824344  0.65861284  0.17607521    -0.54610
C50         C  0.03656653  0.61392085  0.15370073     0.85440
O51         O  0.08328267  0.56731960  0.16834814    -0.56500
O52         O  0.12312210  0.60869806  0.20036518    -0.59800
In53       In  0.09011389  0.36261541  0.35067404     1.36870
C54         C  0.10484929  0.31275314  0.36857067     0.77890
O55         O  0.05785331  0.36100070  0.38425671    -0.60550
O56         O  0.04449482  0.36697964  0.34304565    -0.51460
C57         C  0.10666700  0.41300120  0.36546305     0.70560
O58         O  0.11538320  0.39144334  0.37739449    -0.46320
C59         C  0.10866581  0.36116313  0.29861409     0.75260
O60         O  0.11648315  0.33458263  0.37709217    -0.58180
O61         O  0.08350681  0.35751716  0.30505820    -0.48270
O62         O  0.08636227  0.31651111  0.35074867    -0.54610
C63         C  0.03763600  0.36384676  0.36812894     0.85440
O64         O  0.08946130  0.40862891  0.34651531    -0.56500
O65         O  0.12442183  0.36457846  0.31904067    -0.59800
In66       In  0.37323228  0.32693525  0.10321780     1.36870
C67         C  0.32280050  0.34243661  0.11945096     0.77890
O68         O  0.36747992  0.36044351  0.07203730    -0.60550
O69         O  0.37781699  0.32048058  0.05713720    -0.51460
C70         C  0.42300356  0.34317995  0.11981110     0.70560
O71         O  0.40110605  0.34924310  0.13305915    -0.46320
C72         C  0.37529814  0.27517672  0.12142414     0.75260
O73         O  0.34416119  0.35679828  0.12444774    -0.58180
O74         O  0.36841441  0.28096271  0.09689763    -0.48270
O75         O  0.32772819  0.31990763  0.10733393    -0.54610
C76         C  0.37186602  0.34528605  0.05128283     0.85440
O77         O  0.41905466  0.33008203  0.09762871    -0.56500
O78         O  0.38047257  0.29580140  0.13650402    -0.59800
In79       In  0.87388735  0.64746357  0.10256310     1.36870
C80         C  0.92475503  0.63409563  0.11818726     0.77890
O81         O  0.87080424  0.61271221  0.07217125    -0.60550
O82         O  0.87337384  0.65362277  0.05639200    -0.51460
C83         C  0.82444932  0.63002210  0.12025105     0.70560
O84         O  0.84652212  0.61725619  0.12574821    -0.46320
C85         C  0.87477639  0.70025367  0.11798861     0.75260
O86         O  0.90351380  0.62483486  0.13070957    -0.58180
O87         O  0.87481774  0.69271329  0.09299811    -0.48270
O88         O  0.91962654  0.64923670  0.09766399    -0.54610
C89         C  0.87117877  0.62813687  0.05110091     0.85440
O90         O  0.82800949  0.65214576  0.10665491    -0.56500
O91         O  0.87340253  0.68055710  0.13528267    -0.59800
In92       In  0.66021499  0.07619369  0.88475713     1.36870
C93         C  0.64614483  0.09331188  0.93505417     0.77890
O94         O  0.62628507  0.04449528  0.88399023    -0.60550
O95         O  0.66783718  0.03031543  0.88569894    -0.51460
C96         C  0.64221449  0.09138864  0.83504010     0.70560
O97         O  0.62903055  0.09690502  0.85705846    -0.46320
C98         C  0.71243350  0.09318188  0.88626407     0.75260
O99         O  0.63784109  0.10556077  0.91354497    -0.58180
O100        O  0.70588112  0.06807900  0.88290763    -0.48270
O101        O  0.66064405  0.07212521  0.93075332    -0.54610
C102        C  0.64245388  0.02406236  0.88457464     0.85440
O103        O  0.66506981  0.07942993  0.83871497    -0.56500
O104        O  0.69235418  0.10985207  0.88720808    -0.59800
In105      In  0.58949979  0.11356908  0.67030145     1.36870
C106        C  0.60545809  0.16307119  0.65090679     0.77890
O107        O  0.55510000  0.11265598  0.63959483    -0.60550
O108        O  0.54428919  0.11663757  0.68212800    -0.51460
C109        C  0.60818007  0.06447659  0.65366881     0.70560
O110        O  0.62312474  0.08599406  0.65302510    -0.46320
C111        C  0.60580891  0.11064882  0.72278687     0.75260
O112        O  0.60342523  0.14213165  0.63552688    -0.58180
O113        O  0.58060546  0.11287214  0.71618884    -0.48270
O114        O  0.60014724  0.15847664  0.67605096    -0.54610
C115        C  0.53596374  0.11486378  0.65745987     0.85440
O116        O  0.58367391  0.06823334  0.66201153    -0.56500
O117        O  0.62234758  0.10956076  0.70240854    -0.59800
In118      In  0.37434662  0.14691861  0.60200288     1.36870
C119        C  0.42330408  0.13210617  0.62230481     0.77890
O120        O  0.37617577  0.11380757  0.56946450    -0.60550
O121        O  0.36996261  0.15538032  0.55668838    -0.51460
C122        C  0.32346821  0.13041209  0.61679565     0.70560
O123        O  0.34469131  0.11613837  0.62227740    -0.46320
C124        C  0.37749890  0.20016585  0.61533184     0.75260
O125        O  0.40142725  0.13165480  0.63692285    -0.58180
O126        O  0.38444692  0.19105048  0.59183917    -0.48270
O127        O  0.41971923  0.13867699  0.59738065    -0.54610
C128        C  0.37287374  0.13043622  0.54949116     0.85440
O129        O  0.32877722  0.15267916  0.60417157    -0.56500
O130        O  0.36864058  0.18194482  0.63201749    -0.59800
In131      In  0.08830145  0.86064930  0.67066119     1.36870
C132        C  0.10287133  0.91229612  0.65737172     0.77890
O133        O  0.05521693  0.86212112  0.63844561    -0.60550
O134        O  0.04297036  0.85739993  0.68046155    -0.51460
C135        C  0.10473283  0.81159186  0.65186767     0.70560
O136        O  0.11081941  0.83387449  0.63935270    -0.46320
C137        C  0.10786392  0.86047496  0.72181927     0.75260
O138        O  0.11615446  0.89151628  0.64853393    -0.58180
O139        O  0.08239445  0.85768664  0.71672094    -0.48270
O140        O  0.08191162  0.90622904  0.67198844    -0.54610
C141        C  0.03542367  0.85955027  0.65562381     0.85440
O142        O  0.09078281  0.81480379  0.67378615    -0.56500
O143        O  0.12323161  0.86325235  0.70067092    -0.59800
In144      In  0.65887251  0.89898579  0.63595747     1.36870
C145        C  0.64306126  0.88374769  0.58542144     0.77890
O146        O  0.62679491  0.93250492  0.63269270    -0.60550
O147        O  0.66799238  0.94359082  0.64355359    -0.51460
C148        C  0.63836667  0.88385256  0.68494259     0.70560
O149        O  0.63235901  0.87092163  0.66308274    -0.46320
C150        C  0.71146572  0.88171654  0.63473844     0.75260
O151        O  0.63441406  0.87148521  0.60701877    -0.58180
O152        O  0.70434718  0.90606699  0.62876616    -0.48270
O153        O  0.65903382  0.90386873  0.59008709    -0.54610
C154        C  0.64345513  0.95152336  0.63956064     0.85440
O155        O  0.65508249  0.90371597  0.68170263    -0.56500
O156        O  0.69155141  0.86634211  0.64214801    -0.59800
In157      In  0.58976821  0.86099604  0.85070638     1.36870
C158        C  0.60635124  0.81181156  0.86877461     0.77890
O159        O  0.55810814  0.85735038  0.88468418    -0.60550
O160        O  0.54378048  0.85952799  0.84345195    -0.51460
C161        C  0.60632462  0.91174436  0.86469386     0.70560
O162        O  0.62152582  0.89081117  0.86828416    -0.46320
C163        C  0.60456418  0.86337667  0.79765024     0.75260
O164        O  0.60847642  0.83344878  0.88325788    -0.58180
O165        O  0.57956612  0.86393719  0.80565907    -0.48270
O166        O  0.59669573  0.81560967  0.84490790    -0.54610
C167        C  0.53749684  0.85775801  0.86887289     0.85440
O168        O  0.58270566  0.90616183  0.85545656    -0.56500
O169        O  0.62201907  0.86095691  0.81678861    -0.59800
In170      In  0.90817561  0.86242058  0.17038080     1.36870
C171        C  0.89033737  0.81274957  0.15488982     0.77890
O172        O  0.93885988  0.85495496  0.13628764    -0.60550
O173        O  0.95430484  0.86571718  0.17578546    -0.51460
C174        C  0.89143790  0.91249387  0.15426331     0.70560
O175        O  0.87773631  0.89077579  0.14920509    -0.46320
C176        C  0.89377721  0.86442064  0.22343471     0.75260
O177        O  0.88652144  0.83427793  0.14049806    -0.58180
O178        O  0.91852950  0.86114976  0.21538603    -0.48270
O179        O  0.90255190  0.81678418  0.17748742    -0.54610
C180        C  0.95979972  0.85919182  0.15105914     0.85440
O181        O  0.91384531  0.90820513  0.16666923    -0.56500
O182        O  0.87627222  0.86575541  0.20421063    -0.59800
In183      In  0.58858284  0.61180654  0.35160021     1.36870
C184        C  0.60444487  0.66214746  0.36764966     0.77890
O185        O  0.62027699  0.61642785  0.31753436    -0.60550
O186        O  0.58051632  0.60143618  0.30713619    -0.51460
C187        C  0.60681802  0.56264204  0.36899279     0.70560
O188        O  0.62119323  0.58447342  0.37076364    -0.46320
C189        C  0.53583502  0.61528992  0.36764850     0.75260
O190        O  0.61140868  0.64052528  0.38067840    -0.58180
O191        O  0.54371450  0.61857465  0.34282932    -0.48270
O192        O  0.58928762  0.65764269  0.34707369    -0.54610
C193        C  0.60454440  0.60789750  0.29872508     0.85440
O194        O  0.58302442  0.56641166  0.35920506    -0.56500
O195        O  0.55515349  0.61005259  0.38428815    -0.59800
In196      In  0.65995913  0.39692386  0.38478390     1.36870
C197        C  0.64285689  0.38165370  0.33475487     0.77890
O198        O  0.62608049  0.42857116  0.38598120    -0.60550
O199        O  0.66768159  0.44269273  0.38300036    -0.51460
C200        C  0.64476559  0.38263183  0.43597260     0.70560
O201        O  0.63631594  0.36959718  0.41494819    -0.46320
C202        C  0.71176149  0.37834416  0.38613213     0.75260
O203        O  0.63256886  0.37132790  0.35665329    -0.58180
O204        O  0.70603456  0.40350492  0.38226645    -0.48270
O205        O  0.66205634  0.39886723  0.33885131    -0.54610
C206        C  0.64231281  0.44909236  0.38396292     0.85440
O207        O  0.66027188  0.40301637  0.43038349    -0.56500
O208        O  0.69089337  0.36267278  0.38868392    -0.59800
In209      In  0.65844245  0.57626532  0.13588590     1.36870
C210        C  0.63902456  0.59109308  0.18518473     0.77890
O211        O  0.62452058  0.54478905  0.13934198    -0.60550
O212        O  0.66578272  0.53034568  0.13503838    -0.51460
C213        C  0.64460044  0.59417694  0.08584491     0.70560
O214        O  0.64184495  0.60899891  0.10714621    -0.46320
C215        C  0.71098761  0.59345469  0.13556199     0.75260
O216        O  0.62648949  0.59675766  0.16305336    -0.58180
O217        O  0.70430403  0.56815944  0.13396340    -0.48270
O218        O  0.66177935  0.57870013  0.18190507    -0.54610
C219        C  0.64037136  0.52413721  0.13765423     0.85440
O220        O  0.65327801  0.57005936  0.09025970    -0.56500
O221        O  0.69066516  0.60957445  0.13808651    -0.59800
In222      In  0.58867210  0.35995987  0.17106466     1.36870
C223        C  0.60495697  0.31018863  0.15438720     0.77890
O224        O  0.62284863  0.36575990  0.20129727    -0.60550
O225        O  0.58251525  0.35660923  0.21718463    -0.51460
C226        C  0.60534566  0.41036242  0.15542154     0.70560
O227        O  0.61744036  0.38866411  0.14719049    -0.46320
C228        C  0.53620111  0.36003807  0.15434325     0.75260
O229        O  0.61011539  0.33190291  0.14056712    -0.58180
O230        O  0.54281622  0.36284339  0.17941939    -0.48270
O231        O  0.59196120  0.31402597  0.17681350    -0.54610
C232        C  0.60744131  0.36264999  0.22234146     0.85440
O233        O  0.58436390  0.40589449  0.17060311    -0.56500
O234        O  0.55656286  0.35695521  0.13809678    -0.59800
In235      In  0.84012294  0.89628842  0.38553578     1.36870
C236        C  0.85462602  0.87942988  0.43581169     0.77890
O237        O  0.87372516  0.92830293  0.38434696    -0.60550
O238        O  0.83206346  0.94199756  0.38234585    -0.51460
C239        C  0.85818910  0.87883954  0.33648430     0.70560
O240        O  0.87274186  0.87697784  0.35797958    -0.46320
C241        C  0.78767445  0.87948704  0.38729139     0.75260
O242        O  0.85862988  0.86484454  0.41448678    -0.58180
O243        O  0.79433661  0.90480574  0.38575730    -0.48270
O244        O  0.84376578  0.90262288  0.43112245    -0.54610
C245        C  0.85745950  0.94856348  0.38221801     0.85440
O246        O  0.83458621  0.88926294  0.34028833    -0.56500
O247        O  0.80792892  0.86304324  0.38802299    -0.59800
In248      In  0.40952646  0.86253332  0.35067961     1.36870
C249        C  0.39472841  0.91329061  0.36625155     0.77890
O250        O  0.44068780  0.85661270  0.38403903    -0.60550
O251        O  0.45568129  0.86553025  0.34343730    -0.51460
C252        C  0.39163691  0.81344581  0.36840393     0.70560
O253        O  0.38702207  0.83547748  0.38169652    -0.46320
C254        C  0.39147260  0.86349375  0.29887818     0.75260
O255        O  0.38094771  0.89199710  0.37322868    -0.58180
O256        O  0.41625054  0.85766232  0.30474314    -0.48270
O257        O  0.41609711  0.90827103  0.35190066    -0.54610
C258        C  0.46144614  0.86044344  0.36839493     0.85440
O259        O  0.40471320  0.81665454  0.34587437    -0.56500
O260        O  0.37604389  0.86832144  0.31956006    -0.59800
In261      In  0.62380359  0.82708135  0.42175708     1.36870
C262        C  0.67471277  0.84217946  0.40599189     0.77890
O263        O  0.62977915  0.86100913  0.45249484    -0.60550
O264        O  0.62182902  0.82032996  0.46782271    -0.51460
C265        C  0.57336234  0.84159091  0.40560144     0.70560
O266        O  0.59477555  0.84770152  0.39146131    -0.46320
C267        C  0.62178026  0.77456767  0.40538022     0.75260
O268        O  0.65376078  0.85693894  0.40076088    -0.58180
O269        O  0.62513906  0.78141073  0.43034323    -0.48270
O270        O  0.66895880  0.81946433  0.41760980    -0.54610
C271        C  0.62732567  0.84530958  0.47333195     0.85440
O272        O  0.57828399  0.82999138  0.42841071    -0.56500
O273        O  0.61993588  0.79482467  0.38887123    -0.59800
In274      In  0.40861239  0.36130581  0.67100898     1.36870
C275        C  0.39163723  0.31252477  0.65190518     0.77890
O276        O  0.44199809  0.35941021  0.63830606    -0.60550
O277        O  0.45412495  0.36251953  0.68040219    -0.51460
C278        C  0.39247002  0.41190550  0.65651441     0.70560
O279        O  0.37966586  0.39035588  0.64902283    -0.46320
C280        C  0.39027393  0.36142329  0.72324694     0.75260
O281        O  0.38681872  0.33488287  0.63927779    -0.58180
O282        O  0.41498752  0.35580770  0.71670691    -0.48270
O283        O  0.40437603  0.31521436  0.67435487    -0.54610
C284        C  0.46154224  0.36022221  0.65541961     0.85440
O285        O  0.41396011  0.40729050  0.67040682    -0.56500
O286        O  0.37483652  0.36620134  0.70284963    -0.59800
In287      In  0.62379647  0.32954685  0.60145643     1.36870
C288        C  0.67405607  0.34508519  0.61803218     0.77890
O289        O  0.62339473  0.29577618  0.63358485    -0.60550
O290        O  0.61705488  0.28481670  0.59151466    -0.51460
C291        C  0.57480584  0.34592641  0.62062344     0.70560
O292        O  0.59695082  0.35132049  0.63325936    -0.46320
C293        C  0.62621304  0.34638821  0.54895952     0.75260
O294        O  0.65301183  0.36031004  0.62070107    -0.58180
O295        O  0.62871200  0.32135008  0.55598536    -0.48270
O296        O  0.66903849  0.32190154  0.60720886    -0.54610
C297        C  0.61860181  0.27677046  0.61634226     0.85440
O298        O  0.57800147  0.33296901  0.59826111    -0.56500
O299        O  0.62298362  0.36286079  0.56894868    -0.59800
In300      In  0.12657233  0.64686878  0.60039265     1.36870
C301        C  0.17707296  0.63026019  0.61483948     0.77890
O302        O  0.12976129  0.61312659  0.56877564    -0.60550
O303        O  0.12162192  0.65399499  0.55486876    -0.51460
C304        C  0.07621436  0.63061932  0.61712557     0.70560
O305        O  0.09783603  0.62421787  0.63024722    -0.46320
C306        C  0.12667410  0.69927351  0.61758529     0.75260
O307        O  0.15535928  0.62024139  0.62587719    -0.58180
O308        O  0.13109194  0.69267955  0.59267582    -0.48270
O309        O  0.17265116  0.64877846  0.59699424    -0.54610
C310        C  0.12553320  0.62896094  0.54837922     0.85440
O311        O  0.08073259  0.64456270  0.59546198    -0.56500
O312        O  0.12243938  0.67891950  0.63347464    -0.59800
In313      In  0.15867537  0.57838902  0.38460632     1.36870
C314        C  0.14183645  0.59376861  0.33471647     0.77890
O315        O  0.19160073  0.61124003  0.37898911    -0.60550
O316        O  0.20332522  0.57151977  0.39394078    -0.51460
C317        C  0.14316271  0.59531576  0.43470511     0.70560
O318        O  0.13525393  0.60748336  0.41292719    -0.46320
C319        C  0.14190822  0.52608899  0.38064587     0.75260
O320        O  0.12987200  0.60214836  0.35656902    -0.58180
O321        O  0.16617161  0.53387596  0.37437763    -0.48270
O322        O  0.16244422  0.57843659  0.33893213    -0.54610
C323        C  0.21076136  0.59578891  0.38745832     0.85440
O324        O  0.15802087  0.57430430  0.43048145    -0.56500
O325        O  0.12625636  0.54493039  0.38975489    -0.59800
In326      In  0.37319569  0.64828598  0.42175592     1.36870
C327        C  0.32182107  0.63373542  0.40895904     0.77890
O328        O  0.36970279  0.61238675  0.45114201    -0.60550
O329        O  0.37582023  0.65240002  0.46795900    -0.51460
C330        C  0.42216628  0.63257882  0.40158040     0.70560
O331        O  0.39984492  0.62792368  0.38895404    -0.46320
C332        C  0.37553113  0.70149678  0.40736243     0.75260
O333        O  0.34270309  0.62099011  0.39951490    -0.58180
O334        O  0.37823893  0.69323714  0.43199104    -0.48270
O335        O  0.32733728  0.65456276  0.42363975    -0.54610
C336        C  0.37243093  0.62682981  0.47263827     0.85440
O337        O  0.41918129  0.64415409  0.42470514    -0.56500
O338        O  0.37112444  0.68239848  0.39014932    -0.59800
In339      In  0.34160458  0.57803227  0.63770962     1.36870
C340        C  0.35832725  0.59594013  0.68683360     0.77890
O341        O  0.31094645  0.61202756  0.63114049    -0.60550
O342        O  0.29550102  0.57158163  0.64034570    -0.51460
C343        C  0.35790304  0.59195112  0.58663482     0.70560
O344        O  0.36567565  0.60530844  0.60765974    -0.46320
C345        C  0.35846376  0.52556475  0.63992001     0.75260
O346        O  0.37243142  0.59957935  0.66494615    -0.58180
O347        O  0.33337302  0.53212710  0.63675802    -0.48270
O348        O  0.33524870  0.58418214  0.68324648    -0.54610
C349        C  0.29007782  0.59636180  0.63397162     0.85440
O350        O  0.34272371  0.57133105  0.59223434    -0.56500
O351        O  0.37456358  0.54598652  0.64250524    -0.59800
In352      In  0.15882653  0.89718995  0.88386951     1.36870
C353        C  0.14459579  0.87994366  0.93436979     0.77890
O354        O  0.19107502  0.86401233  0.88499476    -0.60550
O355        O  0.20394731  0.90616334  0.88890442    -0.51460
C356        C  0.14416036  0.88035264  0.83356367     0.70560
O357        O  0.12790994  0.87802117  0.85421170    -0.46320
C358        C  0.14261589  0.94979877  0.88083353     0.75260
O359        O  0.13422781  0.86917097  0.91292041    -0.58180
O360        O  0.16582599  0.94163934  0.87194331    -0.48270
O361        O  0.16129822  0.89957265  0.92945926    -0.54610
C362        C  0.21088410  0.88096354  0.88779040     0.85440
O363        O  0.16778885  0.88946828  0.83941298    -0.56500
O364        O  0.12765900  0.93111844  0.89158705    -0.59800
In365      In  0.34034563  0.39605785  0.88724023     1.36870
C366        C  0.35553251  0.38035468  0.93770122     0.77890
O367        O  0.37422819  0.42751717  0.88232755    -0.60550
O368        O  0.33367428  0.44177933  0.89238711    -0.51460
C369        C  0.35381328  0.38016523  0.83617034     0.70560
O370        O  0.36408957  0.36869579  0.85732936    -0.46320
C371        C  0.28865281  0.37677030  0.88775100     0.75260
O372        O  0.36796915  0.37179351  0.91618246    -0.58180
O373        O  0.29439667  0.40204087  0.88365442    -0.48270
O374        O  0.33639873  0.39735789  0.93292369    -0.54610
C375        C  0.35860253  0.44794752  0.88689725     0.85440
O376        O  0.33731841  0.39961135  0.84159486    -0.56500
O377        O  0.30954703  0.36154500  0.89096790    -0.59800
In378      In  0.37258746  0.82677759  0.92030021     1.36870
C379        C  0.42342909  0.84151468  0.90427205     0.77890
O380        O  0.37745733  0.85966606  0.95261223    -0.60550
O381        O  0.37243114  0.81792377  0.96578428    -0.51460
C382        C  0.32309177  0.84643100  0.90657199     0.70560
O383        O  0.34421663  0.85027923  0.89136176    -0.46320
C384        C  0.37257569  0.77493220  0.90210606     0.75260
O385        O  0.40210539  0.85355233  0.89515175    -0.58180
O386        O  0.36662042  0.78093852  0.92682482    -0.48270
O387        O  0.41847292  0.82299471  0.92216917    -0.54610
C388        C  0.37539330  0.84294661  0.97276179     0.85440
O389        O  0.32728621  0.83217424  0.92792396    -0.56500
O390        O  0.37702965  0.79539044  0.88642744    -0.59800
In391      In  0.40874510  0.61220091  0.85255588     1.36870
C392        C  0.39501515  0.66255046  0.86960886     0.77890
O393        O  0.43983486  0.61306405  0.88680060    -0.60550
O394        O  0.45455236  0.61153034  0.84531840    -0.51460
C395        C  0.39253311  0.56112496  0.86627521     0.70560
O396        O  0.38000571  0.58223141  0.87542035    -0.46320
C397        C  0.39201682  0.61227965  0.80014863     0.75260
O398        O  0.38328890  0.64109418  0.87940452    -0.58180
O399        O  0.41716976  0.61106157  0.80691161    -0.48270
O400        O  0.41269141  0.65800165  0.85077850    -0.54610
C401        C  0.46061764  0.61240014  0.87067871     0.85440
O402        O  0.41357882  0.56659767  0.85164192    -0.56500
O403        O  0.37546029  0.61430958  0.82040662    -0.59800
In404      In  0.87370353  0.14913460  0.92092854     1.36870
C405        C  0.82333945  0.13290323  0.90580343     0.77890
O406        O  0.87234568  0.11501356  0.95237032    -0.60550
O407        O  0.87727235  0.15627423  0.96658569    -0.51460
C408        C  0.92437924  0.13315155  0.90554762     0.70560
O409        O  0.90286170  0.12035660  0.89787518    -0.46320
C410        C  0.87344212  0.20170466  0.90431248     0.75260
O411        O  0.84455559  0.12791730  0.89105971    -0.58180
O412        O  0.86976927  0.19454712  0.92922491    -0.48270
O413        O  0.82808715  0.14627969  0.92759476    -0.54610
C414        C  0.87474317  0.13098647  0.97289219     0.85440
O415        O  0.91953627  0.15355782  0.92102784    -0.56500
O416        O  0.87603309  0.18169247  0.88773603    -0.59800
In417      In  0.62377759  0.64662374  0.92151806     1.36870
C418        C  0.57388474  0.63081143  0.90467558     0.77890
O419        O  0.62012297  0.61460928  0.95524295    -0.60550
O420        O  0.63207401  0.65555153  0.96606100    -0.51460
C421        C  0.67412008  0.63108362  0.90409920     0.70560
O422        O  0.65324380  0.61528059  0.90258279    -0.46320
C423        C  0.61855042  0.69902741  0.90604528     0.75260
O424        O  0.59575925  0.62472113  0.89139930    -0.58180
O425        O  0.61888416  0.69156384  0.93111139    -0.48270
O426        O  0.57793020  0.64395518  0.92678217    -0.54610
C427        C  0.62680694  0.63122325  0.97417138     0.85440
O428        O  0.66873933  0.65468192  0.91368280    -0.56500
O429        O  0.62128257  0.67950929  0.88886616    -0.59800
In430      In  0.87335925  0.82590136  0.60093708     1.36870
C431        C  0.92316515  0.84182499  0.61836813     0.77890
O432        O  0.86899864  0.79164769  0.63225921    -0.60550
O433        O  0.88270446  0.78148727  0.59156604    -0.51460
C434        C  0.82450970  0.84563208  0.61752727     0.70560
O435        O  0.84667769  0.85945217  0.61950387    -0.46320
C436        C  0.87029229  0.84104769  0.54807985     0.75260
O437        O  0.90172384  0.84368598  0.63352560    -0.58180
O438        O  0.86428406  0.81692180  0.55641108    -0.48270
O439        O  0.91869884  0.83227585  0.59463968    -0.54610
C440        C  0.87674798  0.77302043  0.61566084     0.85440
O441        O  0.82766552  0.82164066  0.60783977    -0.56500
O442        O  0.87723980  0.85746805  0.56709086    -0.59800
In443      In  0.91044761  0.61178335  0.67173241     1.36870
C444        C  0.89611632  0.66165580  0.65342127     0.77890
O445        O  0.87673727  0.61084958  0.70379113    -0.60550
O446        O  0.91836676  0.60732213  0.71725750    -0.51460
C447        C  0.89220013  0.56227038  0.65544251     0.70560
O448        O  0.87815457  0.58406705  0.65241629    -0.46320
C449        C  0.96357185  0.61322016  0.65620039     0.75260
O450        O  0.89411547  0.64026592  0.63862539    -0.58180
O451        O  0.95576732  0.61675206  0.68098153    -0.48270
O452        O  0.90436313  0.65741516  0.67768525    -0.54610
C453        C  0.89295292  0.60768993  0.72388470     0.85440
O454        O  0.91552459  0.56616914  0.66631163    -0.56500
O455        O  0.94400104  0.60914248  0.63953665    -0.59800
In456      In  0.83915405  0.57606995  0.88783806     1.36870
C457        C  0.85651221  0.59239970  0.83761492     0.77890
O458        O  0.87064511  0.54196462  0.89120910    -0.60550
O459        O  0.82892578  0.53109599  0.88287024    -0.51460
C460        C  0.85360462  0.59262407  0.93821158     0.70560
O461        O  0.86379542  0.60346598  0.91649373    -0.46320
C462        C  0.78766010  0.59501208  0.89056774     0.75260
O463        O  0.87100848  0.59579303  0.85897184    -0.58180
O464        O  0.79323647  0.56948921  0.88965934    -0.48270
O465        O  0.83336130  0.58114327  0.84241560    -0.54610
C466        C  0.85333771  0.52287015  0.88680292     0.85440
O467        O  0.83677792  0.57312934  0.93373513    -0.56500
O468        O  0.80856760  0.61086929  0.88941371    -0.60280
In469      In  0.90987405  0.36315498  0.84970724     1.36870
C470        C  0.88990617  0.41131034  0.86726387     0.77890
O471        O  0.94235811  0.35610182  0.88185421    -0.60550
O472        O  0.95555364  0.36908235  0.84192519    -0.51460
C473        C  0.89042645  0.31383790  0.86572389     0.70560
O474        O  0.88791374  0.33525289  0.88044630    -0.46320
C475        C  0.89595570  0.36657257  0.79675238     0.75260
O476        O  0.87719778  0.38868157  0.87103898    -0.58180
O477        O  0.91862454  0.35614718  0.80422996    -0.48270
O478        O  0.91350760  0.40910764  0.85602513    -0.54610
C479        C  0.96251052  0.36173654  0.86593400     0.85440
O480        O  0.90248326  0.31792038  0.84280436    -0.56500
O481        O  0.88024323  0.37414238  0.81626952    -0.59800
In482      In  0.87474579  0.32713335  0.42026318     1.36870
C483        C  0.82350942  0.34044611  0.40557448     0.77890
O484        O  0.87156018  0.29473243  0.38700006    -0.60550
O485        O  0.88146862  0.28203220  0.42795047    -0.51460
C486        C  0.92496542  0.34527649  0.40543525     0.70560
O487        O  0.90325929  0.35536801  0.39500551    -0.46320
C488        C  0.87271322  0.34469397  0.47205214     0.75260
O489        O  0.84462460  0.34949501  0.39253773    -0.58180
O490        O  0.87293678  0.31934089  0.46582764    -0.48270
O491        O  0.82906993  0.32497782  0.42581783    -0.54610
C492        C  0.87761420  0.27513582  0.40314839     0.85440
O493        O  0.92050325  0.32618552  0.42269210    -0.56500
O494        O  0.87346387  0.36119876  0.45170618    -0.59800
In495      In  0.84025812  0.39634274  0.63538739     1.36870
C496        C  0.85798002  0.38119935  0.68499184     0.77890
O497        O  0.87364266  0.42878571  0.63231288    -0.60550
O498        O  0.83260273  0.44155605  0.64152537    -0.51460
C499        C  0.85354115  0.38084665  0.58431260     0.70560
O500        O  0.86301896  0.36850237  0.60532175    -0.46320
C501        C  0.78807995  0.37856680  0.63398252     0.75260
O502        O  0.86896876  0.37181890  0.66306540    -0.58180
O503        O  0.79474840  0.40379181  0.63185737    -0.48270
O504        O  0.83780078  0.39718326  0.68117859    -0.54610
C505        C  0.85761682  0.44863671  0.63797634     0.85440
O506        O  0.83881505  0.40163667  0.58977687    -0.56500
O507        O  0.80823996  0.36249163  0.63782305    -0.59800
In508      In  0.34036369  0.89628712  0.13536497     1.36870
C509        C  0.35562596  0.88264322  0.18640078     0.77890
O510        O  0.37423716  0.92764986  0.14005864    -0.60550
O511        O  0.33340263  0.94212538  0.13300041    -0.51460
C512        C  0.35740870  0.88036625  0.08518885     0.70560
O513        O  0.36156974  0.86584115  0.10659172    -0.46320
C514        C  0.28816871  0.87866216  0.13294697     0.75260
O515        O  0.36948566  0.87533300  0.16527294    -0.58180
O516        O  0.29447692  0.90404654  0.13436938    -0.48270
O517        O  0.33352660  0.89528418  0.18096614    -0.54610
C518        C  0.35847985  0.94826904  0.13722818     0.85440
O519        O  0.34531974  0.90291837  0.08993396    -0.56500
O520        O  0.30861353  0.86246588  0.13365784    -0.59800
In521      In  0.90813694  0.11294811  0.35100096     1.36870
C522        C  0.89224591  0.16251089  0.36840598     0.77890
O523        O  0.94139307  0.11645170  0.38289993    -0.60550
O524        O  0.95354549  0.11178161  0.34076675    -0.51460
C525        C  0.89284713  0.06264411  0.36835988     0.70560
O526        O  0.87839050  0.08393218  0.37294811    -0.46320
C527        C  0.88911763  0.10988017  0.29962666     0.75260
O528        O  0.88613250  0.14069463  0.38165950    -0.58180
O529        O  0.91389654  0.11637058  0.30480130    -0.48270
O530        O  0.90556613  0.15879214  0.34620411    -0.54610
C531        C  0.96108403  0.11506731  0.36551065     0.85440
O532        O  0.91536771  0.06756921  0.35572182    -0.56500
O533        O  0.87410778  0.10581527  0.32075459    -0.59800
In534      In  0.08960534  0.11204939  0.85252440     1.36870
C535        C  0.10699126  0.06259949  0.86870928     0.77890
O536        O  0.05918199  0.11515840  0.88765281    -0.60550
O537        O  0.04350329  0.10840486  0.84736010    -0.51460
C538        C  0.10431487  0.16260571  0.86826659     0.70560
O539        O  0.11662752  0.14122884  0.87681109    -0.46320
C540        C  0.10648348  0.11225738  0.79971260     0.75260
O541        O  0.11712413  0.08463696  0.87842166    -0.58180
O542        O  0.08123345  0.11211618  0.80679279    -0.48270
O543        O  0.08781923  0.06602213  0.85157880    -0.54610
C544        C  0.03810817  0.11248921  0.87265832     0.85440
O545        O  0.08521976  0.15794782  0.85123531    -0.56500
O546        O  0.12301519  0.11275301  0.81978294    -0.59800
In547      In  0.12271277  0.14705090  0.41978000     1.36870
C548        C  0.07390497  0.12870030  0.40164053     0.77890
O549        O  0.12841976  0.11325784  0.45093696    -0.60550
O550        O  0.12292161  0.15420707  0.46583644    -0.51460
C551        C  0.17351821  0.13185615  0.40413743     0.70560
O552        O  0.15223630  0.11753470  0.39876863    -0.46320
C553        C  0.11874409  0.19995591  0.40490276     0.75260
O554        O  0.09546149  0.12856737  0.38659334    -0.58180
O555        O  0.11369197  0.19164003  0.42925431    -0.48270
O556        O  0.07767373  0.13749496  0.42579027    -0.54610
C557        C  0.12705174  0.12902553  0.47166323     0.85440
O558        O  0.16838373  0.15406459  0.41690974    -0.56500
O559        O  0.12651355  0.18132689  0.38834998    -0.59800
In560      In  0.15806907  0.07658651  0.63590140     1.36870
C561        C  0.14292379  0.09176710  0.68688993     0.77890
O562        O  0.12323703  0.04581431  0.63910496    -0.60550
O563        O  0.16412964  0.03058955  0.63336198    -0.51460
C564        C  0.14447990  0.09391273  0.58521134     0.70560
O565        O  0.13395348  0.10436839  0.60684191    -0.46320
C566        C  0.21050871  0.09366246  0.63639805     0.75260
O567        O  0.13036164  0.10025157  0.66560633    -0.58180
O568        O  0.20373754  0.06835931  0.63633251    -0.48270
O569        O  0.16308447  0.07606927  0.68165823    -0.54610
C570        C  0.13873416  0.02497212  0.63661599     0.85440
O571        O  0.16114305  0.07449164  0.58994282    -0.56500
O572        O  0.19024055  0.11017537  0.63634881    -0.59800
In573      In  0.83980572  0.07788082  0.13552203     1.36870
C574        C  0.85707287  0.09278362  0.08509599     0.77890
O575        O  0.87376182  0.04646360  0.13734130    -0.60550
O576        O  0.83248927  0.03208446  0.13297504    -0.51460
C577        C  0.85496719  0.09212767  0.18639979     0.70560
O578        O  0.86377439  0.10488784  0.16512623    -0.46320
C579        C  0.78790691  0.09613664  0.13462861     0.75260
O580        O  0.86792823  0.10268742  0.10667190    -0.58180
O581        O  0.79386524  0.07071628  0.13557543    -0.48270
O582        O  0.83754837  0.07596805  0.08973028    -0.54610
C583        C  0.85777855  0.02583980  0.13515386     0.85440
O584        O  0.83806921  0.07285141  0.18125337    -0.56500
O585        O  0.80863021  0.11215811  0.13532405    -0.59800
In586      In  0.62482403  0.14582297  0.09959880     1.36870
C587        C  0.67445326  0.13048245  0.11793169     0.77890
O588        O  0.62668959  0.11352167  0.06616344    -0.60550
O589        O  0.63189768  0.15576427  0.05478370    -0.51460
C590        C  0.57411876  0.12932364  0.11480878     0.70560
O591        O  0.59540098  0.12186457  0.12783242    -0.46320
C592        C  0.62042724  0.19817069  0.11599019     0.75260
O593        O  0.65317599  0.11531948  0.12069631    -0.58180
O594        O  0.61872176  0.19081399  0.09104011    -0.48270
O595        O  0.66985509  0.15339030  0.10630556    -0.54610
C596        C  0.63123557  0.13088150  0.04706823     0.85440
O597        O  0.57923490  0.14420930  0.09390905    -0.56500
O598        O  0.62454658  0.17850202  0.13278533    -0.59800
In599      In  0.33903183  0.07726889  0.38709431     1.36870
C600        C  0.35535334  0.09350122  0.33680217     0.77890
O601        O  0.37274440  0.04636919  0.38023696    -0.60550
O602        O  0.33193424  0.03121861  0.38841166    -0.51460
C603        C  0.35589253  0.09252255  0.43724098     0.70560
O604        O  0.36023305  0.10722612  0.41591770    -0.46320
C605        C  0.28696913  0.09499051  0.39035168     0.75260
O606        O  0.36819612  0.10044806  0.35840558    -0.58180
O607        O  0.29293236  0.06965756  0.38787228    -0.48270
O608        O  0.33369490  0.07937938  0.34132725    -0.54610
C609        C  0.35689519  0.02559562  0.38262929     0.85440
O610        O  0.34391744  0.06983792  0.43247803    -0.56500
O611        O  0.30764177  0.11106234  0.39023695    -0.59800
In612      In  0.40988976  0.11138313  0.17133559     1.36870
C613        C  0.39601775  0.06049555  0.15600872     0.77890
O614        O  0.43961590  0.11134029  0.13569758    -0.60550
O615        O  0.45600174  0.11110156  0.17650137    -0.51460
C616        C  0.39650921  0.16280124  0.15686386     0.70560
O617        O  0.38250165  0.14208750  0.14887360    -0.46320
C618        C  0.39102457  0.11139327  0.22324637     0.75260
O619        O  0.38615604  0.08172253  0.14421787    -0.58180
O620        O  0.41655335  0.11273275  0.21715584    -0.48270
O621        O  0.41224101  0.06577564  0.17560588    -0.54610
C622        C  0.46081738  0.11227423  0.15074014     0.85440
O623        O  0.41654561  0.15668597  0.17212652    -0.56500
O624        O  0.37532385  0.11028982  0.20253920    -0.59800
C625        C  0.34523325  0.09903201  0.28688879    -0.11950
C626        C  0.36472112  0.10051842  0.30825989     0.05050
C627        C  0.39246992  0.10778465  0.30160047    -0.07240
C628        C  0.40002771  0.11268430  0.27384680    -0.07990
C629        C  0.38074023  0.11016410  0.25235033    -0.02540
C630        C  0.35274220  0.10409137  0.25920389     0.04280
N631        N  0.33165421  0.10264583  0.23851423     0.66790
H632        H  0.32378765  0.09401185  0.29172672     0.15690
H633        H  0.42155342  0.11727812  0.26897601     0.15400
N634        N  0.41364753  0.10865003  0.32224840     0.74490
O635        O  0.31524746  0.08218125  0.23812505    -0.38960
O636        O  0.32596481  0.12395716  0.22446652    -0.38900
O637        O  0.41830901  0.08745295  0.33685460    -0.39610
O638        O  0.43103564  0.12830101  0.32213747    -0.39670
C639        C  0.52472332  0.14189198  0.11522249    -0.11950
C640        C  0.54520308  0.12310748  0.12354505     0.05050
C641        C  0.53727225  0.09964083  0.13943682    -0.07240
C642        C  0.50930624  0.09612527  0.14720310    -0.07990
C643        C  0.48906408  0.11531812  0.13928901    -0.02540
C644        C  0.49680372  0.13841866  0.12274907     0.04280
N645        N  0.47730542  0.15947676  0.11476700     0.66790
H646        H  0.53057249  0.15988017  0.10293757     0.15690
H647        H  0.50336328  0.07842098  0.15986381     0.15400
N648        N  0.55685205  0.07880874  0.14717950     0.74490
O649        O  0.48515078  0.18443437  0.11297273    -0.38960
O650        O  0.45408471  0.15290853  0.10487387    -0.38900
O651        O  0.57585283  0.08461111  0.16400546    -0.39610
O652        O  0.55162999  0.05367699  0.14209265    -0.39670
C653        C  0.73715916  0.08788786  0.13952817    -0.11950
C654        C  0.75896464  0.10603872  0.13232869     0.05050
C655        C  0.75256914  0.13297813  0.12278416    -0.07240
C656        C  0.72477927  0.14074244  0.12007819    -0.07990
C657        C  0.70290664  0.12222452  0.12609833    -0.02540
C658        C  0.70927515  0.09573073  0.13694315     0.04280
N659        N  0.68797975  0.07659337  0.14557293     0.66790
H660        H  0.74182166  0.06744118  0.14754135     0.15690
H661        H  0.72036792  0.16112149  0.11175272     0.15400
N662        N  0.77376331  0.15218074  0.11403589     0.74490
O663        O  0.69024490  0.05117987  0.13984592    -0.38960
O664        O  0.66999539  0.08398856  0.16322049    -0.38900
O665        O  0.79036535  0.14564339  0.09475938    -0.39610
O666        O  0.77246268  0.17718313  0.12156662    -0.39670
C667        C  0.15296927  0.09002435  0.53463662    -0.11950
C668        C  0.13869381  0.10325992  0.55642146     0.05050
C669        C  0.11967181  0.12453316  0.54984917    -0.07240
C670        C  0.11583269  0.13215380  0.52200579    -0.07990
C671        C  0.13033771  0.11896045  0.50043140    -0.02540
C672        C  0.14886353  0.09739143  0.50692820     0.04280
N673        N  0.16467337  0.08353213  0.48586631     0.66790
H674        H  0.16758762  0.07363819  0.53904992     0.15690
H675        H  0.10157818  0.14875894  0.51721482     0.15400
N676        N  0.10423503  0.13880969  0.57088725     0.74490
O677        O  0.19080842  0.08333951  0.48719450    -0.38960
O678        O  0.15271910  0.06686453  0.46975482    -0.38900
O679        O  0.11681830  0.15386237  0.58805794    -0.39610
O680        O  0.07827402  0.14110585  0.56868902    -0.39670
C681        C  0.22419455  0.13881269  0.40887699    -0.11950
C682        C  0.20241144  0.12314939  0.39762600     0.05050
C683        C  0.20886821  0.09860683  0.38290428    -0.07240
C684        C  0.23654900  0.08963680  0.38137931    -0.07990
C685        C  0.25812435  0.10502243  0.39326899    -0.02540
C686        C  0.25180546  0.13002857  0.40711131     0.04280
N687        N  0.27275594  0.14598041  0.42089478     0.66790
H688        H  0.21966032  0.15752563  0.42038809     0.15690
H689        H  0.24136453  0.07084843  0.37009829     0.15400
N690        N  0.18796481  0.08294532  0.36879046     0.74490
O691        O  0.27223198  0.17212422  0.41974263    -0.38960
O692        O  0.28879012  0.13436509  0.43783860    -0.38900
O693        O  0.17213340  0.09496351  0.35194122    -0.39610
O694        O  0.18875615  0.05678825  0.36904123    -0.39670
C695        C  0.14296955  0.10037375  0.76532142    -0.11950
C696        C  0.11616124  0.11045189  0.77047870     0.05050
C697        C  0.09876432  0.11626841  0.74772752    -0.07240
C698        C  0.10808071  0.11028818  0.72066728    -0.07990
C699        C  0.13447167  0.09898788  0.71567275    -0.02540
C700        C  0.15217535  0.09443397  0.73841514     0.04280
N701        N  0.17952523  0.08353503  0.73475646     0.66790
H702        H  0.15663071  0.09591863  0.78244544     0.15690
H703        H  0.09453913  0.11446991  0.70339337     0.15400
N704        N  0.07198826  0.12873481  0.75155340     0.74490
O705        O  0.20023973  0.09841297  0.74059506    -0.38960
O706        O  0.18272223  0.05778193  0.73158152    -0.38900
O707        O  0.06933038  0.14968437  0.76695172    -0.39610
O708        O  0.05198350  0.12154875  0.73646617    -0.39670
C709        C  0.88964480  0.12374563  0.24999105    -0.11950
C710        C  0.87879426  0.10669440  0.27111802     0.05050
C711        C  0.85976126  0.08557210  0.26428683    -0.07240
C712        C  0.85259787  0.08151262  0.23660018    -0.07990
C713        C  0.86359624  0.09827876  0.21522392    -0.02540
C714        C  0.88224495  0.11988480  0.22218230     0.04280
N715        N  0.89422075  0.13784158  0.20155018     0.66790
H716        H  0.90436099  0.13994934  0.25507824     0.15690
H717        H  0.83826688  0.06486546  0.23186602     0.15400
N718        N  0.84862147  0.06704447  0.28489104     0.74490
O719        O  0.89310115  0.16377086  0.20479636    -0.38960
O720        O  0.91077723  0.12807779  0.18369816    -0.38900
O721        O  0.83100437  0.07577871  0.30226815    -0.39610
O722        O  0.85193572  0.04124964  0.28219135    -0.39670
C723        C  0.99771754  0.10914752  0.40068624    -0.11950
C724        C  0.99053337  0.11709926  0.37370639     0.05050
C725        C  0.01156794  0.12655261  0.35524839    -0.07240
C726        C  0.03912632  0.12785787  0.36429171    -0.07990
C727        C  0.04606841  0.12097437  0.39160147    -0.02540
C728        C  0.02522925  0.11068881  0.40982316     0.04280
N729        N  0.03167260  0.10122389  0.43732693     0.66790
H730        H  0.98180462  0.10123723  0.41466610     0.15690
H731        H  0.05491441  0.13631909  0.35048215     0.15400
N732        N  0.00518211  0.13693801  0.32813472     0.74490
O733        O  0.01390534  0.10320030  0.45662286    -0.38960
O734        O  0.05361227  0.08774243  0.44162923    -0.38900
O735        O  0.98645631  0.15490798  0.32526201    -0.39610
O736        O  0.02127317  0.13195247  0.30797406    -0.39670
C737        C  0.39317205  0.98179112  0.15455818    -0.11950
C738        C  0.36872917  0.97712287  0.13972964     0.05050
C739        C  0.35494507  0.99996795  0.12783918    -0.07240
C740        C  0.36506583  0.02691800  0.13212344    -0.07990
C741        C  0.38864547  0.03166992  0.14830966    -0.02540
C742        C  0.40348782  0.00864322  0.15868947     0.04280
N743        N  0.42930660  0.01196013  0.17292742     0.66790
H744        H  0.40436731  0.96443807  0.16307905     0.15690
H745        H  0.35376681  0.04420352  0.12367142     0.15400
N746        N  0.33068442  0.99632874  0.11139222     0.74490
O747        O  0.43432513  0.99741341  0.19406762    -0.38960
O748        O  0.44872666  0.02591423  0.16189022    -0.38900
O749        O  0.30771121  0.99119127  0.12313437    -0.39610
O750        O  0.33102939  0.00409484  0.08639418    -0.39670
C751        C  0.90973266  0.20575992  0.38761953    -0.11950
C752        C  0.88669052  0.19049909  0.37881113     0.05050
C753        C  0.86035244  0.20329732  0.37736387    -0.07240
C754        C  0.85810223  0.23142812  0.38477010    -0.07990
C755        C  0.88124266  0.24650866  0.39373542    -0.02540
C756        C  0.90742509  0.23366792  0.39502123     0.04280
N757        N  0.93196530  0.24883078  0.40270126     0.66790
H758        H  0.92993731  0.19598266  0.38791841     0.15690
H759        H  0.83810497  0.24155372  0.38411867     0.15400
N760        N  0.83606704  0.18859852  0.36801662     0.74490
O761        O  0.95173146  0.23650281  0.41438999    -0.38960
O762        O  0.93549094  0.27357047  0.39475911    -0.38900
O763        O  0.83399575  0.16264545  0.37077643    -0.39610
O764        O  0.81555851  0.20182438  0.35881330    -0.39670
C765        C  0.84554138  0.36934764  0.50709382    -0.11950
C766        C  0.86946535  0.35426931  0.50073902     0.05050
C767        C  0.88873592  0.34822724  0.52183383    -0.07240
C768        C  0.88304849  0.35717548  0.54901724    -0.07990
C769        C  0.85862457  0.37162107  0.55552829    -0.02540
C770        C  0.83953458  0.37755512  0.53424513     0.04280
N771        N  0.81327487  0.39041195  0.53995877     0.66790
H772        H  0.83066597  0.37360045  0.49094308     0.15690
H773        H  0.89781231  0.35283082  0.56521642     0.15400
N774        N  0.91457742  0.33442862  0.51604686     0.74490
O775        O  0.80393803  0.40842287  0.52351323    -0.38960
O776        O  0.79740190  0.38048558  0.55849595    -0.38900
O777        O  0.93614225  0.34118802  0.52907114    -0.39610
O778        O  0.91557544  0.31387720  0.49997809    -0.39670
C779        C  0.88927052  0.34800014  0.74936988    -0.11950
C780        C  0.88846291  0.37062783  0.76757460     0.05050
C781        C  0.87853067  0.39649371  0.75824171    -0.07240
C782        C  0.86838545  0.39861901  0.73128629    -0.07990
C783        C  0.86851399  0.37599601  0.71312839    -0.02540
C784        C  0.87907277  0.35019642  0.72218807     0.04280
N785        N  0.87813170  0.32585365  0.70501915     0.66790
H786        H  0.89656634  0.32816429  0.75688269     0.15690
H787        H  0.86101927  0.41852898  0.72401651     0.15400
N788        N  0.87949852  0.42098833  0.77529804     0.74490
O789        O  0.89536098  0.30656171  0.70859459    -0.38960
O790        O  0.85793649  0.32174907  0.68908033    -0.38900
O791        O  0.89878695  0.42439971  0.79246663    -0.39610
O792        O  0.86354237  0.44106189  0.77039593    -0.39670
C793        C  0.84710418  0.47693043  0.86564171    -0.11950
C794        C  0.86104264  0.49333510  0.88498448     0.05050
C795        C  0.88289135  0.48169295  0.90047805    -0.07240
C796        C  0.89154526  0.45453380  0.89448305    -0.07990
C797        C  0.87801757  0.43841296  0.87456491    -0.02540
C798        C  0.85509492  0.44954832  0.86024035     0.04280
N799        N  0.84066467  0.43428025  0.83914088     0.66790
H800        H  0.83020559  0.48583867  0.85402058     0.15690
H801        H  0.90877495  0.44568548  0.90565702     0.15400
N802        N  0.89574694  0.49658216  0.92280192     0.74490
O803        O  0.82922023  0.44707107  0.81949259    -0.38960
O804        O  0.83571323  0.40874390  0.84208834    -0.38900
O805        O  0.88139451  0.51204310  0.93834037    -0.39610
O806        O  0.92032958  0.49110766  0.92966546    -0.39670
C807        C  0.90072988  0.61241293  0.77448114    -0.11950
C808        C  0.88305041  0.60466187  0.75287029     0.05050
C809        C  0.85610674  0.59479289  0.75938329    -0.07240
C810        C  0.84775053  0.59259929  0.78716742    -0.07990
C811        C  0.86564558  0.59952593  0.80892904    -0.02540
C812        C  0.89222796  0.61046803  0.80237205     0.04280
N813        N  0.91064277  0.62016170  0.82344324     0.66790
H814        H  0.92113147  0.62072105  0.76961462     0.15690
H815        H  0.82735662  0.58411803  0.79172721     0.15400
N816        N  0.83748881  0.58534595  0.73833662     0.74490
O817        O  0.93626174  0.61506851  0.82161347    -0.38960
O818        O  0.90239657  0.63814558  0.84055469    -0.38900
O819        O  0.84536658  0.56729590  0.72111954    -0.39610
O820        O  0.81203672  0.59126450  0.73992688    -0.39670
C821        C  0.90269658  0.51350297  0.64365203    -0.11950
C822        C  0.88258185  0.53412705  0.64768575     0.05050
C823        C  0.85422663  0.52657468  0.64710529    -0.07240
C824        C  0.84684275  0.49861975  0.64383623    -0.07990
C825        C  0.86699394  0.47785490  0.64064649    -0.02540
C826        C  0.89533461  0.48559345  0.64029175     0.04280
N827        N  0.91702438  0.46549452  0.63779355     0.66790
H828        H  0.92452085  0.51894986  0.64411119     0.15690
H829        H  0.82502436  0.49314506  0.64381163     0.15400
N830        N  0.83264234  0.54661710  0.65078026     0.74490
O831        O  0.93625606  0.46918642  0.62019392    -0.38960
O832        O  0.92006350  0.44753585  0.65659028    -0.38900
O833        O  0.82971163  0.56563629  0.63304773    -0.39610
O834        O  0.81327540  0.54192810  0.66799966    -0.39670
C835        C  0.90376209  0.72985821  0.61524696    -0.11950
C836        C  0.87976714  0.74377825  0.62398036     0.05050
C837        C  0.86054100  0.73022771  0.64186514    -0.07240
C838        C  0.86651424  0.70330939  0.65129355    -0.07990
C839        C  0.89078939  0.68969181  0.64289738    -0.02540
C840        C  0.90985466  0.70313086  0.62486324     0.04280
N841        N  0.93592014  0.69064413  0.61712994     0.66790
H842        H  0.91863489  0.74053544  0.60196732     0.15690
H843        H  0.85193196  0.69264947  0.66489666     0.15400
N844        N  0.83464673  0.74290756  0.64980160     0.74490
O845        O  0.94781729  0.69743087  0.59466744    -0.38960
O846        O  0.94887591  0.67568768  0.63411563    -0.38900
O847        O  0.82180178  0.75809908  0.63292755    -0.39610
O848        O  0.82276677  0.73609946  0.67226936    -0.39670
C849        C  0.72470298  0.63926251  0.90729518    -0.11950
C850        C  0.70298140  0.62271540  0.89716260     0.05050
C851        C  0.70954523  0.59773480  0.88332152    -0.07240
C852        C  0.73734057  0.58913075  0.88181575    -0.07990
C853        C  0.75886152  0.60525577  0.89287613    -0.02540
C854        C  0.75242351  0.63079597  0.90559774     0.04280
N855        N  0.77332030  0.64755914  0.91850123     0.66790
H856        H  0.72002718  0.65835572  0.91810659     0.15690
H857        H  0.74229055  0.56994241  0.87129279     0.15400
N858        N  0.68863809  0.58133532  0.86999979     0.74490
O859        O  0.77231079  0.67363808  0.91650379    -0.38960
O860        O  0.78975119  0.63681850  0.93563477    -0.38900
O861        O  0.67115306  0.59286532  0.85450365    -0.39610
O862        O  0.69059109  0.55524486  0.86969333    -0.39670
C863        C  0.86252327  0.09408231  0.00670754    -0.11950
C864        C  0.87333994  0.12072077  0.00185208     0.05050
C865        C  0.88185032  0.13682729  0.02469266    -0.07240
C866        C  0.87797746  0.12662071  0.05173238    -0.07990
C867        C  0.86553492  0.10066140  0.05654489    -0.02540
C868        C  0.85882088  0.08372175  0.03364127     0.04280
N869        N  0.84861795  0.05587873  0.03725991     0.66790
H870        H  0.85667977  0.08116937  0.98937678     0.15690
H871        H  0.88356824  0.13964791  0.06906694     0.15400
N872        N  0.89435831  0.16354521  0.02092757     0.74490
O873        O  0.83025787  0.04645437  0.02132976    -0.38960
O874        O  0.86062670  0.03949780  0.05364499    -0.38900
O875        O  0.87930892  0.18426088  0.01589035    -0.39610
O876        O  0.91922834  0.16731620  0.02795459    -0.39670
C877        C  0.87396168  0.23687121  0.86661437    -0.11950
C878        C  0.87525865  0.23101999  0.89510462     0.05050
C879        C  0.87873857  0.25320102  0.91390646    -0.07240
C880        C  0.88142055  0.28034769  0.90375800    -0.07990
C881        C  0.88162559  0.28593911  0.87521803    -0.02540
C882        C  0.87683663  0.26402834  0.85642667     0.04280
N883        N  0.87437378  0.26895796  0.82714210     0.66790
H884        H  0.87052537  0.22015891  0.85209117     0.15690
H885        H  0.88533907  0.29695986  0.91828639     0.15400
N886        N  0.88153786  0.24856366  0.94311014     0.74490
O887        O  0.88279789  0.25106698  0.81001036    -0.38960
O888        O  0.86047756  0.28927074  0.81843829    -0.38900
O889        O  0.90140424  0.23415544  0.95192825    -0.39610
O890        O  0.86787808  0.26318100  0.96001640    -0.39670
C891        C  0.97496786  0.13843709  0.91193602    -0.11950
C892        C  0.95321127  0.12558837  0.89757295     0.05050
C893        C  0.95982258  0.10651027  0.87629331    -0.07240
C894        C  0.98778700  0.10158861  0.86946752    -0.07990
C895        C  0.00938100  0.11512444  0.88338169    -0.02540
C896        C  0.00277767  0.13327497  0.90534043     0.04280
N897        N  0.02385669  0.14779858  0.92027354     0.66790
H898        H  0.97042113  0.15281492  0.92856345     0.15690
H899        H  0.99266495  0.08772192  0.85249648     0.15400
N900        N  0.93873809  0.09283209  0.86059502     0.74490
O901        O  0.02281468  0.17386647  0.92217587    -0.38960
O902        O  0.03972279  0.13452575  0.93611260    -0.38900
O903        O  0.92158926  0.10699882  0.84702360    -0.39610
O904        O  0.94066564  0.06718707  0.85585192    -0.39670
C905        C  0.51109724  0.61493121  0.86007968    -0.11950
C906        C  0.48980390  0.61364781  0.88020186     0.05050
C907        C  0.49685739  0.61600459  0.90848817    -0.07240
C908        C  0.52446168  0.62140835  0.91565461    -0.07990
C909        C  0.54553189  0.62375570  0.89545193    -0.02540
C910        C  0.53875488  0.62015626  0.86726437     0.04280
N911        N  0.55906330  0.62355143  0.84551847     0.66790
H912        H  0.50605657  0.61324982  0.83832465     0.15690
H913        H  0.52955439  0.62350399  0.93737094     0.15400
N914        N  0.47653835  0.61286142  0.93023128     0.74490
O915        O  0.55877279  0.60754080  0.82488199    -0.38960
O916        O  0.57372289  0.64528467  0.84435416    -0.38900
O917        O  0.46248698  0.59076787  0.93202076    -0.39610
O918        O  0.47639909  0.62947852  0.95038644    -0.39670
C919        C  0.37089136  0.88059111  0.00735264    -0.11950
C920        C  0.37489045  0.85229459  0.00204519     0.05050
C921        C  0.37564370  0.83354981  0.02470079    -0.07240
C922        C  0.37047756  0.84331470  0.05167281    -0.07990
C923        C  0.36500591  0.87141367  0.05672536    -0.02540
C924        C  0.36585955  0.89025888  0.03422409     0.04280
N925        N  0.36135365  0.91928827  0.03810567     0.66790
H926        H  0.37048265  0.89532930  0.99036515     0.15690
H927        H  0.37046359  0.82872996  0.06879682     0.15400
N928        N  0.38179193  0.80471517  0.02085917     0.74490
O929        O  0.38121509  0.93606110  0.03436233    -0.38960
O930        O  0.33687882  0.92841491  0.03937015    -0.38900
O931        O  0.40318892  0.79768002  0.00735955    -0.39610
O932        O  0.36848319  0.78652387  0.03444719    -0.39670
C933        C  0.40395916  0.73846717  0.88671104    -0.11950
C934        C  0.37668516  0.74629567  0.89284075     0.05050
C935        C  0.35508250  0.72637242  0.89218593    -0.07240
C936        C  0.36173733  0.69871933  0.88553710    -0.07990
C937        C  0.38915446  0.69093900  0.87931780    -0.02540
C938        C  0.41060600  0.71097707  0.88052613     0.04280
N939        N  0.43931405  0.70355203  0.87702924     0.66790
H940        H  0.42046675  0.75373291  0.88806488     0.15690
H941        H  0.34535710  0.68335498  0.88418443     0.15400
N942        N  0.32651895  0.73389164  0.89712958     0.74490
O943        O  0.45623109  0.72052653  0.86613119    -0.38960
O944        O  0.44859352  0.68197906  0.88849303    -0.38900
O945        O  0.31826649  0.75828332  0.89260879    -0.39610
O946        O  0.30881119  0.71553937  0.90355289    -0.39670
C947        C  0.38486191  0.48305123  0.86068277    -0.11950
C948        C  0.36841646  0.47679268  0.88394238     0.05050
C949        C  0.35974193  0.49837834  0.90179883    -0.07240
C950        C  0.36736616  0.52591574  0.89532175    -0.07990
C951        C  0.38353124  0.53218223  0.87170010    -0.02540
C952        C  0.39192056  0.51039594  0.85393597     0.04280
N953        N  0.40600762  0.51568498  0.82805897     0.66790
H954        H  0.39083121  0.46661405  0.84658737     0.15690
H955        H  0.36128786  0.54248074  0.90918056     0.15400
N956        N  0.34429624  0.49270022  0.92691568     0.74490
O957        O  0.42548614  0.50004727  0.82024479    -0.38960
O958        O  0.39593083  0.53267036  0.81097388    -0.38900
O959        O  0.34865551  0.47082323  0.94060567    -0.39610
O960        O  0.32867273  0.51098247  0.93723698    -0.39670
C961        C  0.12173503  0.99233125  0.90126539    -0.11950
C962        C  0.13366291  0.97884692  0.87837066     0.05050
C963        C  0.13745205  0.99340106  0.85331146    -0.07240
C964        C  0.13004647  0.02125757  0.85172851    -0.07990
C965        C  0.11803249  0.03487643  0.87438770    -0.02540
C966        C  0.11371155  0.02038813  0.89971462     0.04280
N967        N  0.10050435  0.03308731  0.92343902     0.66790
H968        H  0.11887801  0.98091997  0.92046510     0.15690
H969        H  0.13228349  0.03203866  0.83205884     0.15400
N970        N  0.14582013  0.97937746  0.82852911     0.74490
O971        O  0.08975346  0.01817371  0.94227820    -0.38960
O972        O  0.10090412  0.05902626  0.92669050    -0.38900
O973        O  0.13175198  0.95890810  0.82035577    -0.39610
O974        O  0.16319827  0.99054551  0.81218164    -0.39670
C975        C  0.28304845  0.85153988  0.87522242    -0.11950
C976        C  0.29551080  0.85776554  0.90057408     0.05050
C977        C  0.28032547  0.87217486  0.92113317    -0.07240
C978        C  0.25269265  0.87924863  0.91606005    -0.07990
C979        C  0.23981093  0.87215378  0.89118834    -0.02540
C980        C  0.25512732  0.85820062  0.87026483     0.04280
N981        N  0.24324634  0.85116807  0.84389468     0.66790
H982        H  0.29479872  0.84027542  0.85969311     0.15690
H983        H  0.24103285  0.89047394  0.93170245     0.15400
N984        N  0.29272037  0.88023155  0.94694031     0.74490
O985        O  0.25854878  0.84983951  0.82254943    -0.38960
O986        O  0.21835178  0.84323595  0.84221184    -0.38900
O987        O  0.31775035  0.88799747  0.94763860    -0.39610
O988        O  0.27789537  0.88260964  0.96852081    -0.39670
C989        C  0.34811762  0.61113698  0.73482099    -0.11950
C990        C  0.36797979  0.60373693  0.71473520     0.05050
C991        C  0.39591424  0.60064712  0.72268178    -0.07240
C992        C  0.40306693  0.60398165  0.75054175    -0.07990
C993        C  0.38308142  0.61053641  0.77086974    -0.02540
C994        C  0.35528481  0.61455477  0.76268082     0.04280
N995        N  0.33391006  0.62156379  0.78222536     0.66790
H996        H  0.32660527  0.61346196  0.72897701     0.15690
H997        H  0.42448058  0.60089485  0.75634965     0.15400
N998        N  0.41698277  0.59239389  0.70325842     0.74490
O999        O  0.31995666  0.64333345  0.77862638    -0.38960
O1000       O  0.32502403  0.60339569  0.79902001    -0.38900
O1001       O  0.42388593  0.60848217  0.68367650    -0.39610
O1002       O  0.43226555  0.57196386  0.70877132    -0.39670
C1003       C  0.38522428  0.62971866  0.52216109    -0.11950
C1004       C  0.37144070  0.61523779  0.50112255     0.05050
C1005       C  0.35545691  0.59153132  0.50833184    -0.07240
C1006       C  0.35186504  0.58457071  0.53634966    -0.07990
C1007       C  0.36451922  0.59984093  0.55752939    -0.02540
C1008       C  0.38226124  0.62211870  0.55012640     0.04280
N1009       N  0.39755472  0.63720916  0.57043137     0.66790
H1010       H  0.39810481  0.64748229  0.51689367     0.15690
H1011       H  0.33885801  0.56690030  0.54156974     0.15400
N1012       N  0.34205358  0.57462465  0.48794928     0.74490
O1013       O  0.42364814  0.63862938  0.56834015    -0.38960
O1014       O  0.38503908  0.65368413  0.58645296    -0.38900
O1015       O  0.35640226  0.56328400  0.46917903    -0.39610
O1016       O  0.31798464  0.56529857  0.49286248    -0.39670
C1017       C  0.28269459  0.62716343  0.37690017    -0.11950
C1018       C  0.29313441  0.62466301  0.40384982     0.05050
C1019       C  0.27630067  0.61275011  0.42507701    -0.07240
C1020       C  0.24984262  0.60295637  0.41825157    -0.07990
C1021       C  0.23931483  0.60561128  0.39151892    -0.02540
C1022       C  0.25572056  0.61808946  0.37037516     0.04280
N1023       N  0.24592500  0.62106348  0.34236081     0.66790
H1024       H  0.29581046  0.63614587  0.36082524     0.15690
H1025       H  0.23676375  0.59377372  0.43426215     0.15400
N1026       N  0.28541347  0.60975872  0.45336146     0.74490
O1027       O  0.25688152  0.63879197  0.32628705    -0.38960
O1028       O  0.22799274  0.60465046  0.33275532    -0.38900
O1029       O  0.30310915  0.62603155  0.46352470    -0.39610
O1030       O  0.27310573  0.59292810  0.46943663    -0.39670
C1031       C  0.12644203  0.63959986  0.49792437    -0.11950
C1032       C  0.12632743  0.61950120  0.51911239     0.05050
C1033       C  0.12956735  0.59128984  0.51186919    -0.07240
C1034       C  0.13485780  0.58425292  0.48416244    -0.07990
C1035       C  0.13612383  0.60445621  0.46316978    -0.02540
C1036       C  0.13150757  0.63252081  0.47012583     0.04280
N1037       N  0.13376065  0.65430471  0.44984392     0.66790
H1038       H  0.12409305  0.66129067  0.50315702     0.15690
H1039       H  0.13765961  0.56261241  0.47890221     0.15400
N1040       N  0.12721750  0.56948276  0.53209264     0.74490
O1041       O  0.11746095  0.67469166  0.45099835    -0.38960
O1042       O  0.15476714  0.65570909  0.43405013    -0.38900
O1043       O  0.10582809  0.56780137  0.54733948    -0.39610
O1044       O  0.14382278  0.54932700  0.53132887    -0.39670
C1045       C  0.99857479  0.61660437  0.61830667    -0.11950
C1046       C  0.99300240  0.61462710  0.64687190     0.05050
C1047       C  0.01546676  0.61566292  0.66553683    -0.07240
C1048       C  0.04251140  0.62024735  0.65526382    -0.07990
C1049       C  0.04777548  0.62353230  0.62677856    -0.02540
C1050       C  0.02550269  0.62114646  0.60815104     0.04280
N1051       N  0.02978023  0.62300304  0.57881163     0.66790
H1052       H  0.98176455  0.61551491  0.60361958     0.15690
H1053       H  0.05951411  0.62157935  0.66970923     0.15400
N1054       N  0.01139159  0.61182682  0.69479689     0.74490
O1055       O  0.02537647  0.60197282  0.56398262    -0.38960
O1056       O  0.03177484  0.64652480  0.56742091    -0.38900
O1057       O  0.99906683  0.59040999  0.70377108    -0.39610
O1058       O  0.02392839  0.62727760  0.71166066    -0.39670
C1059       C  0.22498139  0.62156933  0.59890410    -0.11950
C1060       C  0.20559344  0.62077813  0.62081705     0.05050
C1061       C  0.21441688  0.61234939  0.64740568    -0.07240
C1062       C  0.24231539  0.60501384  0.65128381    -0.07990
C1063       C  0.26157033  0.60599230  0.62930321    -0.02540
C1064       C  0.25279385  0.61431921  0.60271192     0.04280
N1065       N  0.27127843  0.61434728  0.57908726     0.66790
H1066       H  0.21840075  0.62794567  0.57845041     0.15690
H1067       H  0.24902080  0.59839964  0.67161785     0.15400
N1068       N  0.19590154  0.61216372  0.67085248     0.74490
O1069       O  0.26252635  0.60669529  0.55574960    -0.38960
O1070       O  0.29493990  0.62550889  0.58045432    -0.38900
O1071       O  0.17516725  0.59610706  0.67122764    -0.39610
O1072       O  0.20322792  0.62363155  0.69309950    -0.39670
C1073       C  0.72381683  0.33376047  0.62360414    -0.11950
C1074       C  0.70258941  0.35355402  0.62573595     0.05050
C1075       C  0.70969696  0.38119964  0.63242485    -0.07240
C1076       C  0.73770289  0.38860168  0.63498358    -0.07990
C1077       C  0.75895417  0.36901881  0.63178147    -0.02540
C1078       C  0.75180352  0.34111586  0.62633707     0.04280
N1079       N  0.77248936  0.32025071  0.62191415     0.66790
H1080       H  0.71877186  0.31248090  0.61850310     0.15690
H1081       H  0.74285696  0.40993303  0.63976853     0.15400
N1082       N  0.68901666  0.40211716  0.63644695     0.74490
O1083       O  0.76978500  0.29683679  0.63341842    -0.38960
O1084       O  0.79019633  0.32321096  0.60265886    -0.38900
O1085       O  0.67117732  0.39930410  0.65559554    -0.39610
O1086       O  0.69197143  0.42550372  0.62494511    -0.39670
C1087       C  0.35553366  0.37801642  0.75744654    -0.11950
C1088       C  0.38022191  0.36356466  0.75230288     0.05050
C1089       C  0.39467932  0.35214887  0.77495081    -0.07240
C1090       C  0.38493082  0.35657824  0.80208677    -0.07990
C1091       C  0.36101609  0.37234711  0.80725516    -0.02540
C1092       C  0.34558478  0.38226321  0.78446389     0.04280
N1093       N  0.31961627  0.39631356  0.78820477     0.66790
H1094       H  0.34381165  0.38625759  0.74027059     0.15690
H1095       H  0.39676430  0.34846680  0.81924362     0.15400
N1096       N  0.41914735  0.33591818  0.77089423     0.74490
O1097       O  0.31413213  0.41735447  0.77366451    -0.38960
O1098       O  0.30053511  0.38521918  0.80259289    -0.38900
O1099       O  0.44198041  0.34781890  0.76564963    -0.39610
O1100       O  0.41902719  0.31071007  0.77797621    -0.39670
C1101       C  0.50754413  0.38057338  0.64353912    -0.11950
C1102       C  0.49069727  0.35700923  0.64702347     0.05050
C1103       C  0.50210618  0.33041029  0.64336880    -0.07240
C1104       C  0.53004693  0.32798187  0.63595884    -0.07990
C1105       C  0.54692827  0.35135383  0.63188357    -0.02540
C1106       C  0.53575562  0.37822250  0.63586809     0.04280
N1107       N  0.55191829  0.40307855  0.63118472     0.66790
H1108       H  0.49855809  0.40087595  0.64672307     0.15690
H1109       H  0.53860473  0.30749771  0.63255561     0.15400
N1110       N  0.48569819  0.30567227  0.64687584     0.74490
O1111       O  0.54000150  0.42559168  0.62537687    -0.38960
O1112       O  0.57778213  0.40334860  0.63489360    -0.38900
O1113       O  0.46159205  0.30433497  0.63710771    -0.39610
O1114       O  0.49648922  0.28395025  0.65655816    -0.39670
C1115       C  0.40338333  0.46155928  0.64922575    -0.11950
C1116       C  0.38327548  0.44044314  0.65015714     0.05050
C1117       C  0.35517242  0.44727087  0.64560645    -0.07240
C1118       C  0.34793113  0.47505910  0.64106391    -0.07990
C1119       C  0.36793591  0.49633998  0.64116245    -0.02540
C1120       C  0.39620940  0.48923532  0.64425728     0.04280
N1121       N  0.41797593  0.50954813  0.64197770     0.66790
H1122       H  0.42505223  0.45642821  0.65191602     0.15690
H1123       H  0.32622764  0.48015593  0.63865716     0.15400
N1124       N  0.33349862  0.42678318  0.64713583     0.74490
O1125       O  0.43764574  0.50936652  0.65904093    -0.38960
O1126       O  0.42037713  0.52394378  0.62018097    -0.38900
O1127       O  0.33134969  0.41121136  0.66813015    -0.39610
O1128       O  0.31378090  0.42760031  0.63014490    -0.39670
C1129       C  0.36220973  0.88709475  0.26469297    -0.11950
C1130       C  0.38142332  0.86612665  0.27015377     0.05050
C1131       C  0.39193496  0.85004005  0.24796210    -0.07240
C1132       C  0.38352289  0.85609080  0.22074146    -0.07990
C1133       C  0.36460651  0.87746037  0.21526788    -0.02540
C1134       C  0.35414876  0.89336705  0.23763310     0.04280
N1135       N  0.33682247  0.91708965  0.23324988     0.66790
H1136       H  0.35458716  0.89989100  0.28152876     0.15690
H1137       H  0.39126479  0.84356386  0.20377892     0.15400
N1138       N  0.41010747  0.82695753  0.25270145     0.74490
O1139       O  0.31631489  0.92135199  0.24912909    -0.38960
O1140       O  0.34483822  0.93620973  0.21707951    -0.38900
O1141       O  0.40606258  0.81104768  0.27319223    -0.39610
O1142       O  0.42782994  0.82022179  0.23451909    -0.39670
C1143       C  0.49520651  0.83670651  0.39787712    -0.11950
C1144       C  0.49008082  0.85772812  0.37855093     0.05050
C1145       C  0.51242252  0.87408551  0.36835408    -0.07240
C1146       C  0.53955060  0.86813326  0.37711152    -0.07990
C1147       C  0.54468505  0.84671379  0.39615919    -0.02540
C1148       C  0.52214449  0.83061527  0.40636963     0.04280
N1149       N  0.52626409  0.80689873  0.42390733     0.66790
H1150       H  0.47820559  0.82380124  0.40530883     0.15690
H1151       H  0.55667994  0.88080232  0.36962923     0.15400
N1152       N  0.50789268  0.89739515  0.35027941     0.74490
O1153       O  0.50988617  0.80230974  0.44400411    -0.38960
O1154       O  0.54292256  0.78812985  0.41651433    -0.38900
O1155       O  0.48703514  0.91277602  0.35382115    -0.39610
O1156       O  0.52652349  0.90486697  0.33321834    -0.39670
C1157       C  0.39685217  0.77733447  0.40363134    -0.11950
C1158       C  0.38406553  0.78582046  0.37910601     0.05050
C1159       C  0.36683394  0.76699123  0.36456442    -0.07240
C1160       C  0.36411413  0.73969245  0.37481458    -0.07990
C1161       C  0.37753314  0.73102109  0.39902749    -0.02540
C1162       C  0.39376911  0.75028586  0.41376135     0.04280
N1163       N  0.40881059  0.74235124  0.43793770     0.66790
H1164       H  0.41019486  0.79166095  0.41457989     0.15690
H1165       H  0.35144164  0.72488745  0.36377574     0.15400
N1166       N  0.35161703  0.77492224  0.34006356     0.74490
O1167       O  0.43486697  0.74502218  0.43818372    -0.38960
O1168       O  0.39593121  0.73793659  0.46043267    -0.38900
O1169       O  0.35229209  0.79941661  0.33081352    -0.39610
O1170       O  0.33571410  0.75770223  0.32850427    -0.39670
C1171       C  0.39583056  0.96328313  0.35502131    -0.11950
C1172       C  0.38611279  0.94205741  0.37265828     0.05050
C1173       C  0.36712412  0.94866910  0.39420782    -0.07240
C1174       C  0.35729594  0.97599583  0.39647754    -0.07990
C1175       C  0.36678993  0.99699786  0.37851895    -0.02540
C1176       C  0.38627722  0.99055166  0.35746506     0.04280
N1177       N  0.39537515  0.01089661  0.33742301     0.66790
H1178       H  0.41004412  0.95837287  0.33821948     0.15690
H1179       H  0.34291278  0.98117074  0.41305430     0.15400
N1180       N  0.35864421  0.92848130  0.41462320     0.74490
O1181       O  0.41977984  0.01006769  0.32771140    -0.38960
O1182       O  0.37807913  0.02698882  0.32638099    -0.38900
O1183       O  0.37637744  0.91261992  0.42529721    -0.39610
O1184       O  0.33467858  0.92961576  0.42535831    -0.39670
C1185       C  0.84872565  0.99913812  0.38631946    -0.11950
C1186       C  0.86723777  0.97765457  0.37984976     0.05050
C1187       C  0.89474707  0.98445288  0.37182122    -0.07240
C1188       C  0.90279524  0.01233505  0.37003091    -0.07990
C1189       C  0.88406657  0.03391333  0.37556546    -0.02540
C1190       C  0.85686408  0.02709419  0.38469650     0.04280
N1191       N  0.83721488  0.04801733  0.39238723     0.66790
H1192       H  0.82780568  0.99416688  0.39316365     0.15690
H1193       H  0.92367779  0.01711648  0.36294040     0.15400
N1194       N  0.91440572  0.96359897  0.36387423     0.74490
O1195       O  0.81250367  0.04629680  0.38413684    -0.38960
O1196       O  0.84292242  0.06474995  0.41157759    -0.38900
O1197       O  0.90876580  0.94704878  0.34450032    -0.39610
O1198       O  0.93901847  0.96500880  0.37245958    -0.39670
C1199       C  0.75363883  0.84460040  0.40344382    -0.11950
C1200       C  0.75864516  0.86956043  0.38931130     0.05050
C1201       C  0.73591252  0.88492845  0.37923699    -0.07240
C1202       C  0.70873471  0.87556200  0.38492885    -0.07990
C1203       C  0.70373041  0.85097124  0.39992785    -0.02540
C1204       C  0.72667989  0.83534199  0.40918159     0.04280
N1205       N  0.72325326  0.81072425  0.42559649     0.66790
H1206       H  0.77087359  0.83274961  0.41142097     0.15690
H1207       H  0.69138353  0.88740179  0.37724034     0.15400
N1208       N  0.73994824  0.90934010  0.36246848     0.74490
O1209       O  0.73521194  0.78867384  0.41825180    -0.38960
O1210       O  0.71354427  0.81250321  0.44991803    -0.38900
O1211       O  0.75789622  0.90949654  0.34322037    -0.39610
O1212       O  0.72299079  0.92914939  0.36411544    -0.39670
C1213       C  0.85991230  0.84120276  0.46986801    -0.11950
C1214       C  0.86098928  0.86971014  0.46409717     0.05050
C1215       C  0.86735016  0.88832971  0.48562681    -0.07240
C1216       C  0.87126571  0.87828134  0.51251334    -0.07990
C1217       C  0.86886930  0.84987658  0.51866567    -0.02540
C1218       C  0.86402489  0.83101982  0.49678761     0.04280
N1219       N  0.86364221  0.80159927  0.50127469     0.66790
H1220       H  0.85563684  0.82669559  0.45334006     0.15690
H1221       H  0.87553338  0.89302577  0.52882970     0.15400
N1222       N  0.87053235  0.91742364  0.48053386     0.74490
O1223       O  0.84515330  0.78687315  0.49016104    -0.38960
O1224       O  0.88430378  0.78989836  0.51202583    -0.38900
O1225       O  0.84930642  0.93252030  0.47881210    -0.39610
O1226       O  0.89397146  0.92866565  0.48369920    -0.39670
C1227       C  0.59982869  0.27401068  0.11942067    -0.11950
C1228       C  0.61190780  0.28227132  0.14435498     0.05050
C1229       C  0.62815712  0.26314320  0.15960266    -0.07240
C1230       C  0.63053756  0.23579324  0.14960238    -0.07990
C1231       C  0.61793578  0.22742969  0.12487051    -0.02540
C1232       C  0.60272503  0.24698428  0.10948808     0.04280
N1233       N  0.58873913  0.23944787  0.08457912     0.66790
H1234       H  0.58731892  0.28856235  0.10785669     0.15690
H1235       H  0.64253038  0.22079645  0.16108563     0.15400
N1236       N  0.64297936  0.27086715  0.18440577     0.74490
O1237       O  0.56267324  0.24139336  0.08346929    -0.38960
O1238       O  0.60250606  0.23632103  0.06243250    -0.38900
O1239       O  0.64226044  0.29524380  0.19377359    -0.39610
O1240       O  0.65866107  0.25360497  0.19610653    -0.39670
C1241       C  0.64945571  0.47343551  0.13545903    -0.11950
C1242       C  0.63029212  0.49500568  0.13928957     0.05050
C1243       C  0.60254108  0.48817052  0.14649861    -0.07240
C1244       C  0.59527528  0.46043704  0.15144657    -0.07990
C1245       C  0.61463978  0.43895527  0.14857813    -0.02540
C1246       C  0.64205563  0.44557853  0.14002145     0.04280
N1247       N  0.66304342  0.42474578  0.13715343     0.66790
H1248       H  0.67074939  0.47829374  0.12984507     0.15690
H1249       H  0.57403439  0.45562745  0.15733410     0.15400
N1250       N  0.58139617  0.50887179  0.14900907     0.74490
O1251       O  0.67966920  0.42565783  0.11677926    -0.38960
O1252       O  0.66833593  0.40888753  0.15724686    -0.38900
O1253       O  0.57502934  0.52322203  0.12812021    -0.39610
O1254       O  0.56527439  0.50861199  0.16979179    -0.39670
C1255       C  0.61677106  0.59418295  0.04314965    -0.11950
C1256       C  0.63954625  0.60449503  0.05773993     0.05050
C1257       C  0.65749808  0.62414144  0.04515455    -0.07240
C1258       C  0.65181527  0.63341626  0.01828012    -0.07990
C1259       C  0.62934435  0.62281568  0.00339378    -0.02540
C1260       C  0.61117129  0.60333592  0.01610749     0.04280
N1261       N  0.58658632  0.59352498  0.00247216     0.66790
H1262       H  0.60298943  0.57933124  0.05315591     0.15690
H1263       H  0.66595513  0.64794404  0.00828780     0.15400
N1264       N  0.68229783  0.63367645  0.05858952     0.74490
O1265       O  0.57670822  0.56990638  0.00831061    -0.38960
O1266       O  0.57258251  0.60971352  0.98756445    -0.38900
O1267       O  0.69658358  0.61716832  0.07285212    -0.39610
O1268       O  0.69213299  0.65736550  0.05297603    -0.39670
C1269       C  0.74480188  0.34585509  0.40730673    -0.11950
C1270       C  0.74038656  0.36800046  0.38905269     0.05050
C1271       C  0.76321298  0.37945157  0.37434794    -0.07240
C1272       C  0.78999429  0.36927271  0.37911449    -0.07990
C1273       C  0.79459732  0.34796045  0.39844112    -0.02540
C1274       C  0.77143955  0.33554094  0.41200663     0.04280
N1275       N  0.77437056  0.31228959  0.43035177     0.66790
H1276       H  0.72733285  0.33649901  0.41820222     0.15690
H1277       H  0.80738261  0.37870315  0.36817612     0.15400
N1278       N  0.75959425  0.40070469  0.35392420     0.74490
O1279       O  0.76161713  0.31193381  0.45333438    -0.38960
O1280       O  0.78554936  0.29030886  0.42166198    -0.38900
O1281       O  0.75329337  0.42494274  0.36136634    -0.39610
O1282       O  0.76797667  0.39669351  0.32940642    -0.39670
C1283       C  0.63717524  0.38298673  0.51452068    -0.11950
C1284       C  0.62782878  0.35591116  0.51981920     0.05050
C1285       C  0.62189255  0.33824667  0.49724657    -0.07240
C1286       C  0.62722562  0.34760160  0.47007169    -0.07990
C1287       C  0.63788691  0.37428615  0.46486030    -0.02540
C1288       C  0.64240096  0.39224950  0.48748146     0.04280
N1289       N  0.65250278  0.41992663  0.48353381     0.66790
H1290       H  0.64154126  0.39683070  0.53158839     0.15690
H1291       H  0.62304208  0.33387567  0.45287953     0.15400
N1292       N  0.60978174  0.31123560  0.50140107     0.74490
O1293       O  0.63694000  0.44011676  0.48928011    -0.38960
O1294       O  0.67818641  0.42407834  0.48015322    -0.38900
O1295       O  0.58962371  0.30806417  0.51804865    -0.39610
O1296       O  0.61639265  0.29148041  0.48559810    -0.39670
C1297       C  0.63877862  0.39556015  0.28578087    -0.11950
C1298       C  0.63315285  0.37557220  0.30634618     0.05050
C1299       C  0.61937624  0.35077081  0.29884056    -0.07240
C1300       C  0.61165510  0.34672740  0.27111700    -0.07990
C1301       C  0.61753284  0.36676809  0.25072871    -0.02540
C1302       C  0.63128687  0.39146452  0.25819948     0.04280
N1303       N  0.63649581  0.41328223  0.23850003     0.66790
H1304       H  0.64911070  0.41477486  0.29115958     0.15690
H1305       H  0.60089023  0.32783695  0.26546036     0.15400
N1306       N  0.61369111  0.32922748  0.31863305     0.74490
O1307       O  0.62980594  0.43784818  0.24441996    -0.38960
O1308       O  0.65236376  0.40910531  0.21800141    -0.38900
O1309       O  0.59660384  0.33344083  0.33813506    -0.39610
O1310       O  0.62092782  0.30468251  0.31330172    -0.39670
C1311       C  0.48873501  0.63360061  0.35914647    -0.11950
C1312       C  0.50636563  0.61811343  0.37619089     0.05050
C1313       C  0.49534461  0.60582465  0.40058007    -0.07240
C1314       C  0.46728831  0.60961330  0.40743442    -0.07990
C1315       C  0.44987223  0.62552550  0.39063610    -0.02540
C1316       C  0.46069780  0.63766892  0.36607932     0.04280
N1317       N  0.44435241  0.65568216  0.34899669     0.66790
H1318       H  0.49699127  0.64316899  0.34044046     0.15690
H1319       H  0.45917852  0.60069064  0.42653070     0.15400
N1320       N  0.51209069  0.58936643  0.41856932     0.74490
O1321       O  0.45543996  0.67665189  0.33763887    -0.38960
O1322       O  0.42001729  0.64894627  0.34231294    -0.38900
O1323       O  0.52997999  0.60100778  0.43354230    -0.39610
O1324       O  0.50489363  0.56473509  0.42400099    -0.39670
C1325       C  0.59535883  0.59174997  0.25091649    -0.11950
C1326       C  0.61330217  0.60524724  0.26929701     0.05050
C1327       C  0.63889597  0.61574672  0.25904235    -0.07240
C1328       C  0.64604534  0.61200642  0.23109554    -0.07990
C1329       C  0.62830395  0.59805456  0.21296935    -0.02540
C1330       C  0.60246699  0.58799980  0.22292009     0.04280
N1331       N  0.58401690  0.57240705  0.20563667     0.66790
H1332       H  0.57566131  0.58367110  0.25843437     0.15690
H1333       H  0.66603347  0.61942356  0.22361919     0.15400
N1334       N  0.65808455  0.62990288  0.27656081     0.74490
O1335       O  0.57115676  0.55169976  0.21550964    -0.38960
O1336       O  0.57715784  0.58165271  0.18222048    -0.38900
O1337       O  0.67149554  0.61635618  0.29434072    -0.39610
O1338       O  0.66593291  0.65414639  0.27030496    -0.39670
C1339       C  0.59678777  0.51354803  0.38078020    -0.11950
C1340       C  0.61669511  0.53455059  0.37659778     0.05050
C1341       C  0.64510158  0.52738424  0.37655732    -0.07240
C1342       C  0.65271987  0.49946312  0.37923545    -0.07990
C1343       C  0.63275197  0.47830432  0.38232582    -0.02540
C1344       C  0.60438327  0.48567388  0.38350019     0.04280
N1345       N  0.58285497  0.46528014  0.38650926     0.66790
H1346       H  0.57492089  0.51866494  0.38090405     0.15690
H1347       H  0.67456736  0.49431605  0.37865247     0.15400
N1348       N  0.66648606  0.54782082  0.37272100     0.74490
O1349       O  0.56513136  0.46767230  0.40578229    -0.38960
O1350       O  0.57797319  0.44889538  0.36679668    -0.38900
O1351       O  0.66967487  0.56653911  0.39062867    -0.39610
O1352       O  0.68537264  0.54393159  0.35485397    -0.39670
C1353       C  0.61278436  0.74046174  0.36813412    -0.11950
C1354       C  0.61959551  0.74538359  0.39590320     0.05050
C1355       C  0.62421261  0.72242128  0.41356012    -0.07240
C1356       C  0.62062388  0.69539113  0.40349055    -0.07990
C1357       C  0.61239101  0.69060609  0.37610307    -0.02540
C1358       C  0.60959424  0.71349538  0.35790382     0.04280
N1359       N  0.60422091  0.70983467  0.32890470     0.66790
H1360       H  0.61010819  0.75776784  0.35406381     0.15690
H1361       H  0.62319511  0.67807247  0.41757694     0.15400
N1362       N  0.63223995  0.72599927  0.44179001     0.74490
O1363       O  0.58817344  0.72622129  0.31649497    -0.38960
O1364       O  0.61874455  0.69319440  0.31483112    -0.38900
O1365       O  0.61461049  0.73410774  0.45946507    -0.39610
O1366       O  0.65489126  0.71599504  0.44994669    -0.39670
C1367       C  0.85917861  0.85762336  0.26115165    -0.11950
C1368       C  0.88575869  0.86661013  0.25296219     0.05050
C1369       C  0.90402917  0.87733624  0.27307412    -0.07240
C1370       C  0.89518877  0.87882588  0.30080313    -0.07990
C1371       C  0.86822672  0.87094661  0.30870283    -0.02540
C1372       C  0.85020274  0.85941956  0.28884095     0.04280
N1373       N  0.82313379  0.84896188  0.29648762     0.66790
H1374       H  0.84543610  0.84876067  0.24589255     0.15690
H1375       H  0.90874015  0.88822864  0.31592595     0.15400
N1376       N  0.93060044  0.88886418  0.26552177     0.74490
O1377       O  0.80387751  0.84855448  0.27895837    -0.38960
O1378       O  0.81928372  0.83707261  0.31956913    -0.38900
O1379       O  0.93250423  0.90623710  0.24595700    -0.39610
O1380       O  0.95107466  0.88553048  0.28126311    -0.39670
C1381       C  0.90253280  0.96204944  0.14617141    -0.11950
C1382       C  0.88241228  0.94089334  0.14686981     0.05050
C1383       C  0.85453168  0.94763337  0.14111196    -0.07240
C1384       C  0.84747283  0.97531339  0.13574326    -0.07990
C1385       C  0.86741370  0.99665832  0.13631158    -0.02540
C1386       C  0.89552663  0.98965242  0.14057646     0.04280
N1387       N  0.91727253  0.01004996  0.13927604     0.66790
H1388       H  0.92409092  0.95707078  0.14978567     0.15690
H1389       H  0.82586461  0.98029840  0.13246603     0.15400
N1390       N  0.83281354  0.92720854  0.14223230     0.74490
O1391       O  0.93597631  0.01013387  0.15739126    -0.38960
O1392       O  0.92072774  0.02432177  0.11752798    -0.38900
O1393       O  0.82886439  0.91322997  0.16408887    -0.39610
O1394       O  0.81445038  0.92698990  0.12377524    -0.39670
C1395       C  0.48678663  0.86174110  0.86054325    -0.11950
C1396       C  0.50835843  0.85601338  0.87905596     0.05050
C1397       C  0.50150823  0.84723703  0.90628868    -0.07240
C1398       C  0.47367657  0.84288864  0.91371353    -0.07990
C1399       C  0.45215246  0.84789174  0.89502235    -0.02540
C1400       C  0.45880813  0.85778342  0.86811248     0.04280
N1401       N  0.43784302  0.86239333  0.84769930     0.66790
H1402       H  0.49172742  0.86849946  0.83962615     0.15690
H1403       H  0.46882356  0.83573454  0.93453278     0.15400
N1404       N  0.52235884  0.84223521  0.92663736     0.74490
O1405       O  0.43991724  0.88283710  0.83139122    -0.38960
O1406       O  0.42016325  0.84372628  0.84273434    -0.38900
O1407       O  0.53642418  0.86229444  0.93576640    -0.39610
O1408       O  0.52255141  0.81944612  0.93956471    -0.39670
C1409       C  0.60329054  0.77638453  0.90577768    -0.11950
C1410       C  0.61288919  0.78389661  0.87928353     0.05050
C1411       C  0.62498308  0.76363481  0.86199018    -0.07240
C1412       C  0.62603137  0.73605474  0.87111354    -0.07990
C1413       C  0.61575167  0.72828297  0.89733179    -0.02540
C1414       C  0.60410345  0.74873960  0.91486521     0.04280
N1415       N  0.59135443  0.74168052  0.94100049     0.66790
H1416       H  0.59335159  0.79179734  0.91876387     0.15690
H1417       H  0.63566834  0.72066497  0.85789515     0.15400
N1418       N  0.63742203  0.77098804  0.83579327     0.74490
O1419       O  0.59414975  0.75758626  0.96151000    -0.38960
O1420       O  0.57356671  0.72241422  0.94234327    -0.38900
O1421       O  0.65197703  0.79271666  0.83373332    -0.39610
O1422       O  0.63737714  0.75397707  0.81596772    -0.39670
C1423       C  0.76089614  0.89143921  0.62325679    -0.11950
C1424       C  0.74070043  0.87231854  0.63250391     0.05050
C1425       C  0.74899583  0.84492669  0.63882804    -0.07240
C1426       C  0.77682507  0.83732172  0.63517293    -0.07990
C1427       C  0.79676590  0.85626898  0.62520300    -0.02540
C1428       C  0.78872890  0.88382978  0.61965086     0.04280
N1429       N  0.80798553  0.90392305  0.60875212     0.66790
H1430       H  0.75501720  0.91254644  0.61841656     0.15690
H1431       H  0.78274118  0.81605941  0.63929630     0.15400
N1432       N  0.72954403  0.82425374  0.64808000     0.74490
O1433       O  0.80169317  0.91792633  0.58760375    -0.38960
O1434       O  0.82836458  0.91150063  0.62311580    -0.38900
O1435       O  0.71145611  0.81531020  0.63159184    -0.39610
O1436       O  0.73422439  0.81084589  0.67003087    -0.39670
C1437       C  0.65417188  0.88472208  0.53533318    -0.11950
C1438       C  0.63669413  0.87489241  0.55673370     0.05050
C1439       C  0.61547466  0.85562064  0.55029002    -0.07240
C1440       C  0.61337693  0.84569940  0.52300480    -0.07990
C1441       C  0.63116422  0.85536512  0.50186135    -0.02540
C1442       C  0.65188568  0.87509297  0.50812296     0.04280
N1443       N  0.67178705  0.88438788  0.48764018     0.66790
H1444       H  0.67074002  0.89915640  0.54001318     0.15690
H1445       H  0.59707350  0.83107268  0.51799831     0.15400
N1446       N  0.59527155  0.84680972  0.57061863     0.74490
O1447       O  0.68092828  0.90894454  0.48828240    -0.38960
O1448       O  0.68332667  0.86718009  0.47164205    -0.38900
O1449       O  0.58337102  0.86451788  0.58577900    -0.39610
O1450       O  0.58572460  0.82240430  0.57002800    -0.39670
C1451       C  0.63545330  0.85277941  0.72561737    -0.11950
C1452       C  0.62668019  0.87702325  0.71234961     0.05050
C1453       C  0.61013890  0.89633013  0.72695097    -0.07240
C1454       C  0.60289097  0.89082186  0.75465899    -0.07990
C1455       C  0.61256676  0.86715623  0.76832679    -0.02540
C1456       C  0.62916166  0.84795051  0.75369488     0.04280
N1457       N  0.64019985  0.82385963  0.76699282     0.66790
H1458       H  0.64871595  0.83838407  0.71456306     0.15690
H1459       H  0.59001021  0.90542121  0.76589363     0.15400
N1460       N  0.60074536  0.92158057  0.71414182     0.74490
O1461       O  0.63929745  0.80071776  0.75489382    -0.38960
O1462       O  0.65590067  0.82672508  0.78752810    -0.38900
O1463       O  0.59485884  0.92221234  0.68872343    -0.39610
O1464       O  0.59611281  0.94279469  0.72870289    -0.39670
C1465       C  0.00020382  0.85893960  0.61852631    -0.11950
C1466       C  0.00598108  0.85833817  0.64696941     0.05050
C1467       C  0.98371748  0.85480154  0.66608907    -0.07240
C1468       C  0.95681440  0.85001176  0.65624792    -0.07990
C1469       C  0.95139682  0.84918124  0.62776256    -0.02540
C1470       C  0.97334693  0.85443276  0.60878689     0.04280
N1471       N  0.96884616  0.85544233  0.57953786     0.66790
H1472       H  0.01680389  0.86215799  0.60353011     0.15690
H1473       H  0.94006323  0.84661156  0.67103580     0.15400
N1474       N  0.98786932  0.85600495  0.69543999     0.74490
O1475       O  0.97192666  0.87813904  0.56676796    -0.38960
O1476       O  0.96797590  0.83317276  0.56591973    -0.38900
O1477       O  0.99782087  0.87769030  0.70610695    -0.39610
O1478       O  0.97709494  0.83775985  0.71102789    -0.39670
C1479       C  0.14164627  0.87928105  0.75477004    -0.11950
C1480       C  0.11877689  0.86200398  0.75024264     0.05050
C1481       C  0.10568626  0.84866818  0.77304650    -0.07240
C1482       C  0.11410438  0.85536708  0.80006984    -0.07990
C1483       C  0.13623231  0.87379307  0.80470073    -0.02540
C1484       C  0.15064741  0.88533681  0.78153393     0.04280
N1485       N  0.17375565  0.90401941  0.78442892     0.66790
H1486       H  0.15186005  0.88936642  0.73731201     0.15690
H1487       H  0.10385747  0.84551208  0.81761843     0.15400
N1488       N  0.08501737  0.82743282  0.76910485     0.74490
O1489       O  0.19436977  0.90204683  0.76821664    -0.38960
O1490       O  0.17136495  0.92553675  0.79899689    -0.38900
O1491       O  0.08726315  0.81070121  0.74914122    -0.39610
O1492       O  0.06704138  0.82260602  0.78773390    -0.39670
C1493       C  0.12426376  0.74966758  0.60695757    -0.11950
C1494       C  0.12516849  0.72846757  0.62698917     0.05050
C1495       C  0.12175784  0.73542813  0.65526955    -0.07240
C1496       C  0.11528051  0.76274011  0.66246917    -0.07990
C1497       C  0.11298114  0.78367061  0.64235992    -0.02540
C1498       C  0.11806002  0.77713667  0.61422514     0.04280
N1499       N  0.11526971  0.79742057  0.59259908     0.66790
H1500       H  0.12683416  0.74461112  0.58522727     0.15690
H1501       H  0.11233097  0.76774381  0.68417806     0.15400
N1502       N  0.12505746  0.71530298  0.67697626     0.74490
O1503       O  0.13211566  0.79755255  0.57238861    -0.38960
O1504       O  0.09347525  0.81173108  0.59108726    -0.38900
O1505       O  0.14690331  0.70101253  0.67799669    -0.39610
O1506       O  0.10867040  0.71519995  0.69755980    -0.39670
C1507       C  0.13159062  0.94670919  0.63093563    -0.11950
C1508       C  0.11122798  0.94138776  0.65136880     0.05050
C1509       C  0.09895173  0.96405179  0.66541882    -0.07240
C1510       C  0.10713452  0.99111827  0.65867332    -0.07990
C1511       C  0.12810548  0.99633095  0.63903404    -0.02540
C1512       C  0.14010013  0.97393091  0.62443439     0.04280
N1513       N  0.16009859  0.97843008  0.60248925     0.66790
H1514       H  0.14065426  0.92956922  0.61963539     0.15690
H1515       H  0.09821937  0.00819417  0.67022853     0.15400
N1516       N  0.07944407  0.96012052  0.68774940     0.74490
O1517       O  0.17824322  0.96033558  0.59727198    -0.38960
O1518       O  0.15755970  0.99867693  0.58607080    -0.38900
O1519       O  0.08669383  0.94712504  0.70921952    -0.39610
O1520       O  0.05743322  0.97418963  0.68845340    -0.39670
C1521       C  0.36936136  0.09265062  0.51481099    -0.11950
C1522       C  0.37174085  0.12115155  0.52019706     0.05050
C1523       C  0.37135403  0.14000621  0.49761474    -0.07240
C1524       C  0.36671402  0.13004855  0.47073294    -0.07990
C1525       C  0.36297273  0.10166074  0.46562005    -0.02540
C1526       C  0.36495480  0.08278769  0.48795472     0.04280
N1527       N  0.36266017  0.05351401  0.48383789     0.66790
H1528       H  0.37005367  0.07782183  0.53170350     0.15690
H1529       H  0.36580808  0.14470853  0.45370817     0.15400
N1530       N  0.37598347  0.16915861  0.50138282     0.74490
O1531       O  0.38362377  0.03839192  0.48740007    -0.38960
O1532       O  0.33896315  0.04240738  0.48247062    -0.38900
O1533       O  0.39764187  0.17748636  0.51332286    -0.39610
O1534       O  0.36115247  0.18649596  0.48874610    -0.39670
C1535       C  0.36028186  0.24094234  0.64166599    -0.11950
C1536       C  0.37960657  0.22972593  0.62285230     0.05050
C1537       C  0.40129327  0.24660633  0.61251898    -0.07240
C1538       C  0.40327633  0.27412221  0.62114687    -0.07990
C1539       C  0.38477035  0.28508671  0.64073193    -0.02540
C1540       C  0.36248239  0.26855001  0.65095906     0.04280
N1541       N  0.34188242  0.27910411  0.67018009     0.66790
H1542       H  0.34360852  0.22786786  0.64945649     0.15690
H1543       H  0.42003831  0.28680987  0.61303991     0.15400
N1544       N  0.42296695  0.23552885  0.59538390     0.74490
O1545       O  0.31944145  0.26600861  0.67417994    -0.38960
O1546       O  0.34562261  0.30145527  0.68316214    -0.38900
O1547       O  0.41848075  0.23045040  0.57019432    -0.39610
O1548       O  0.44757725  0.23545231  0.60406467    -0.39670
C1549       C  0.28960012  0.09517792  0.63490379    -0.11950
C1550       C  0.29463922  0.12179651  0.62400941     0.05050
C1551       C  0.27187148  0.13974606  0.62001502    -0.07240
C1552       C  0.24490399  0.13044294  0.62565677    -0.07990
C1553       C  0.23971398  0.10340381  0.63515174    -0.02540
C1554       C  0.26246669  0.08588609  0.64091773     0.04280
N1555       N  0.25855649  0.05909113  0.65350705     0.66790
H1556       H  0.30688923  0.08153112  0.63891855     0.15690
H1557       H  0.22778577  0.14425834  0.62142929     0.15400
N1558       N  0.27553530  0.16739527  0.60975533     0.74490
O1559       O  0.27407197  0.03917647  0.64669443    -0.38960
O1560       O  0.24270486  0.05639651  0.67434881    -0.38900
O1561       O  0.27865410  0.17144528  0.58405912    -0.39610
O1562       O  0.27013461  0.18765718  0.62534701    -0.39670
C1563       C  0.48811471  0.13169135  0.66663502    -0.11950
C1564       C  0.50628099  0.11619606  0.64991505     0.05050
C1565       C  0.49631791  0.10442636  0.62509452    -0.07240
C1566       C  0.46908677  0.10994426  0.61681350    -0.07990
C1567       C  0.45119694  0.12611746  0.63309111    -0.02540
C1568       C  0.46078306  0.13717516  0.65838450     0.04280
N1569       N  0.44403698  0.15562188  0.67483227     0.66790
H1570       H  0.49579089  0.14107631  0.68544116     0.15690
H1571       H  0.46157868  0.10110387  0.59766977     0.15400
N1572       N  0.51311654  0.08610073  0.60862863     0.74490
O1573       O  0.44677366  0.15619292  0.70081194    -0.38960
O1574       O  0.42982439  0.17423817  0.66333068    -0.38900
O1575       O  0.52675415  0.06710585  0.62019917    -0.39610
O1576       O  0.51094670  0.08600163  0.58258016    -0.39670
C1577       C  0.64092857  0.02668855  0.66257988    -0.11950
C1578       C  0.61877091  0.03670886  0.64700012     0.05050
C1579       C  0.60487826  0.01883156  0.62854694    -0.07240
C1580       C  0.61311677  0.99096109  0.62683043    -0.07990
C1581       C  0.63496000  0.98073908  0.64287303    -0.02540
C1582       C  0.64879238  0.99878524  0.66126990     0.04280
N1583       N  0.66927242  0.98879448  0.68024538     0.66790
H1584       H  0.65089620  0.04024273  0.67737002     0.15690
H1585       H  0.60282701  0.97727083  0.61241627     0.15400
N1586       N  0.58314719  0.02878717  0.61089823     0.74490
O1587       O  0.68994462  0.00375711  0.68606335    -0.38960
O1588       O  0.66435310  0.96742678  0.69469762    -0.38900
O1589       O  0.58390923  0.05325798  0.60154325    -0.39610
O1590       O  0.56494251  0.01227643  0.60196160    -0.39670
C1591       C  0.59665169  0.20102300  0.61784676    -0.11950
C1592       C  0.61183215  0.19112210  0.64038492     0.05050
C1593       C  0.62967046  0.20931473  0.65471816    -0.07240
C1594       C  0.63100863  0.23731805  0.64673317    -0.07990
C1595       C  0.61534686  0.24740155  0.62455659    -0.02540
C1596       C  0.59770621  0.22907517  0.61008807     0.04280
N1597       N  0.57927061  0.23885861  0.58899342     0.66790
H1598       H  0.58236503  0.18721680  0.60745493     0.15690
H1599       H  0.64495942  0.25122190  0.65742163     0.15400
N1600       N  0.64720922  0.19951594  0.67659463     0.74490
O1601       O  0.57347320  0.22353586  0.56868698    -0.38960
O1602       O  0.56538142  0.26067132  0.59283225    -0.38900
O1603       O  0.65801757  0.17576907  0.67513073    -0.39610
O1604       O  0.65480946  0.21576160  0.69554708    -0.39670
C1605       C  0.75648205  0.11374610  0.86869567    -0.11950
C1606       C  0.74119426  0.10211093  0.89075365     0.05050
C1607       C  0.75284722  0.10090797  0.91745377    -0.07240
C1608       C  0.77956444  0.11158149  0.92138415    -0.07990
C1609       C  0.79514192  0.12294651  0.89939536    -0.02540
C1610       C  0.78343089  0.12437795  0.87263761     0.04280
N1611       N  0.79769126  0.13772417  0.84981170     0.66790
H1612       H  0.74700935  0.11522196  0.84848713     0.15690
H1613       H  0.78861449  0.11044914  0.94182404     0.15400
N1614       N  0.73787359  0.08941768  0.94085262     0.74490
O1615       O  0.79221668  0.13096612  0.82520748    -0.38960
O1616       O  0.81290799  0.15866327  0.85385500    -0.38900
O1617       O  0.72266128  0.06826600  0.93812052    -0.39610
O1618       O  0.74232168  0.09843870  0.96493651    -0.39670
C1619       C  0.60989933  0.99037584  0.86483683    -0.11950
C1620       C  0.63236280  0.99527270  0.88232063     0.05050
C1621       C  0.64596003  0.97260080  0.89485295    -0.07240
C1622       C  0.63734461  0.94546139  0.88847126    -0.07990
C1623       C  0.61526754  0.94057085  0.87032639    -0.02540
C1624       C  0.60155343  0.96344475  0.85823022     0.04280
N1625       N  0.58039055  0.95987593  0.83781761     0.66790
H1626       H  0.59979732  0.00767265  0.85477165     0.15690
H1627       H  0.64751388  0.92805415  0.89823517     0.15400
N1628       N  0.66762776  0.97670608  0.91474370     0.74490
O1629       O  0.55881662  0.97459344  0.83880702    -0.38960
O1630       O  0.58547059  0.94601442  0.81621909    -0.38900
O1631       O  0.66607786  0.99623928  0.93203742    -0.39610
O1632       O  0.68641544  0.95878533  0.91749092    -0.39670
C1633       C  0.59550815  0.10175927  0.77268163    -0.11950
C1634       C  0.61509009  0.10863830  0.75197997     0.05050
C1635       C  0.64332870  0.11144234  0.75933445    -0.07240
C1636       C  0.65139491  0.10550929  0.78653355    -0.07990
C1637       C  0.63194828  0.09789095  0.80700132    -0.02540
C1638       C  0.60354671  0.09613524  0.80003699     0.04280
N1639       N  0.58286135  0.08694620  0.81973263     0.66790
H1640       H  0.57388939  0.09934206  0.76725396     0.15690
H1641       H  0.67306956  0.10752446  0.79194426     0.15400
N1642       N  0.66393443  0.12119787  0.73989257     0.74490
O1643       O  0.55872390  0.09696164  0.81905732    -0.38960
O1644       O  0.58717775  0.06586903  0.83462370    -0.38900
O1645       O  0.65987852  0.14334352  0.72656927    -0.39610
O1646       O  0.68791682  0.11078524  0.73979094    -0.39670
C1647       C  0.66277312  0.11735558  0.97618549    -0.11950
C1648       C  0.64089384  0.10353065  0.96319431     0.05050
C1649       C  0.61562028  0.09888077  0.97768149    -0.07240
C1650       C  0.61312796  0.10860851  0.00504873    -0.07990
C1651       C  0.63498111  0.12268968  0.01796344    -0.02540
C1652       C  0.66022164  0.12722153  0.00337517     0.04280
N1653       N  0.68388636  0.14027570  0.01599459     0.66790
H1654       H  0.68211502  0.12050863  0.96491461     0.15690
H1655       H  0.59409336  0.10488099  0.01663832     0.15400
N1656       N  0.59270574  0.08404049  0.96550549     0.74490
O1657       O  0.70811191  0.13314724  0.00893149    -0.38960
O1658       O  0.68098148  0.16097237  0.03164316    -0.38900
O1659       O  0.59655600  0.06719026  0.94589769    -0.39610
O1660       O  0.56857552  0.08627242  0.97567392    -0.39670
C1661       C  0.84890849  0.58597074  0.98893536    -0.11950
C1662       C  0.86002564  0.60167063  0.96682977     0.05050
C1663       C  0.87638293  0.62529847  0.97288333    -0.07240
C1664       C  0.88046921  0.63290449  0.00060518    -0.07990
C1665       C  0.86875788  0.61748995  0.02254064    -0.02540
C1666       C  0.85327636  0.59338465  0.01653929     0.04280
N1667       N  0.84074105  0.57683647  0.03802566     0.66790
H1668       H  0.83656737  0.56763643  0.98484430     0.15690
H1669       H  0.89240583  0.65143399  0.00501272     0.15400
N1670       N  0.88835335  0.64230544  0.95144491     0.74490
O1671       O  0.81497645  0.57209117  0.03761571    -0.38960
O1672       O  0.85585894  0.56243200  0.05361730    -0.38900
O1673       O  0.87275879  0.65514350  0.93498959    -0.39610
O1674       O  0.91365415  0.64902873  0.95260174    -0.39670
C1675       C  0.86654166  0.73752003  0.15266832    -0.11950
C1676       C  0.87661972  0.72970849  0.12642198     0.05050
C1677       C  0.88945800  0.74991505  0.10929987    -0.07240
C1678       C  0.89239050  0.77708575  0.11885215    -0.07990
C1679       C  0.88285771  0.78478943  0.14522428    -0.02540
C1680       C  0.86915960  0.76494510  0.16234033     0.04280
N1681       N  0.85731565  0.77216357  0.18898094     0.66790
H1682       H  0.85633294  0.72209437  0.16561036     0.15690
H1683       H  0.90321368  0.79211769  0.10588661     0.15400
N1684       N  0.90137485  0.74288298  0.08297006     0.74490
O1685       O  0.85022158  0.75337759  0.20594905    -0.38960
O1686       O  0.85093367  0.79690252  0.19451213    -0.38900
O1687       O  0.88581672  0.73910885  0.06244713    -0.39610
O1688       O  0.92716070  0.74572447  0.07903877    -0.39670
C1689       C  0.77531486  0.63967302  0.13151867    -0.11950
C1690       C  0.79638054  0.61999192  0.12806354     0.05050
C1691       C  0.78937314  0.59151388  0.12874216    -0.07240
C1692       C  0.76144729  0.58354303  0.13145841    -0.07990
C1693       C  0.74020516  0.60326358  0.13397200    -0.02540
C1694       C  0.74745907  0.63175110  0.13445056     0.04280
N1695       N  0.72699424  0.65306998  0.13699978     0.66790
H1696       H  0.78042376  0.66157887  0.13099535     0.15690
H1697       H  0.75635911  0.56164253  0.13135661     0.15400
N1698       N  0.80997387  0.57043250  0.12529722     0.74490
O1699       O  0.72924970  0.67094940  0.15588641    -0.38960
O1700       O  0.71080383  0.65771187  0.11715626    -0.38900
O1701       O  0.82855186  0.56754891  0.14329310    -0.39610
O1702       O  0.80634520  0.55146417  0.10772950    -0.39670
C1703       C  0.36532542  0.19809393  0.13565158    -0.11950
C1704       C  0.39039676  0.19190590  0.14894105     0.05050
C1705       C  0.40947994  0.21371355  0.15401409    -0.07240
C1706       C  0.40350848  0.24055043  0.14507122    -0.07990
C1707       C  0.37877575  0.24660992  0.13153807    -0.02540
C1708       C  0.35895939  0.22536093  0.12733637     0.04280
N1709       N  0.33204288  0.23122695  0.11606694     0.66790
H1710       H  0.35032553  0.18168981  0.13233883     0.15690
H1711       H  0.41859219  0.25689285  0.14852869     0.15400
N1712       N  0.43525045  0.20918467  0.16782229     0.74490
O1713       O  0.31813245  0.21223210  0.10473304    -0.38960
O1714       O  0.32049966  0.25421089  0.12069203    -0.38900
O1715       O  0.45761438  0.21695527  0.15632478    -0.39610
O1716       O  0.43511465  0.20398979  0.19347168    -0.39670
C1717       C  0.38394314  0.34216543  0.00101429    -0.11950
C1718       C  0.36948333  0.35560130  0.02248689     0.05050
C1719       C  0.35154164  0.37762680  0.01583989    -0.07240
C1720       C  0.34781772  0.38510692  0.98816183    -0.07990
C1721       C  0.36177626  0.37144609  0.96647589    -0.02540
C1722       C  0.38033894  0.34978417  0.97311778     0.04280
N1723       N  0.39501859  0.33469446  0.95209119     0.66790
H1724       H  0.39769549  0.32516848  0.00588980     0.15690
H1725       H  0.33361198  0.40184224  0.98369290     0.15400
N1726       N  0.33584850  0.39184850  0.03672422     0.74490
O1727       O  0.42065921  0.33030892  0.95469504    -0.38960
O1728       O  0.38166391  0.32110040  0.93430551    -0.38900
O1729       O  0.34781839  0.40912987  0.05217391    -0.39610
O1730       O  0.30968866  0.39152934  0.03586343    -0.39670
C1731       C  0.47224416  0.35368634  0.10925049    -0.11950
C1732       C  0.45127742  0.35003440  0.12933131     0.05050
C1733       C  0.45809403  0.35198684  0.15769314    -0.07240
C1734       C  0.48575787  0.35686633  0.16513733    -0.07990
C1735       C  0.50694861  0.35936679  0.14505263    -0.02540
C1736       C  0.49982269  0.35880637  0.11667026     0.04280
N1737       N  0.52001677  0.36382073  0.09511961     0.66790
H1738       H  0.46705190  0.35290903  0.08746935     0.15690
H1739       H  0.49092522  0.35716430  0.18692881     0.15400
N1740       N  0.43784203  0.34714767  0.17922883     0.74490
O1741       O  0.51962017  0.34951224  0.07326842    -0.38960
O1742       O  0.53484541  0.38544782  0.09571273    -0.38900
O1743       O  0.42308760  0.32546523  0.17891801    -0.39610
O1744       O  0.43820305  0.36170574  0.20091319    -0.39670
C1745       C  0.00335268  0.35128317  0.40457257    -0.11950
C1746       C  0.00846067  0.36221165  0.37803200     0.05050
C1747       C  0.98569287  0.37052362  0.36176021    -0.07240
C1748       C  0.95852462  0.36648734  0.37181636    -0.07990
C1749       C  0.95351832  0.35399715  0.39770702    -0.02540
C1750       C  0.97632027  0.34734551  0.41471456     0.04280
N1751       N  0.97250158  0.33687676  0.44241073     0.66790
H1752       H  0.02056651  0.34550219  0.41760157     0.15690
H1753       H  0.94126683  0.37193050  0.35869882     0.15400
N1754       N  0.98961586  0.38284471  0.33498049     0.74490
O1755       O  0.98803797  0.31794575  0.45141697    -0.38960
O1756       O  0.95640248  0.34914188  0.45908515    -0.38900
O1757       O  0.99622302  0.36780455  0.31462968    -0.39610
O1758       O  0.98091582  0.40708724  0.33060807    -0.39670
C1759       C  0.12878761  0.45577603  0.34889869    -0.11950
C1760       C  0.11692675  0.44118686  0.37125860     0.05050
C1761       C  0.11262982  0.45485149  0.39688357    -0.07240
C1762       C  0.12030018  0.48295982  0.39914647    -0.07990
C1763       C  0.13252367  0.49729889  0.37679008    -0.02540
C1764       C  0.13656583  0.48366215  0.35124448     0.04280
N1765       N  0.14715294  0.49808321  0.32717039     0.66790
H1766       H  0.13128900  0.44547630  0.32909637     0.15690
H1767       H  0.11731962  0.49359796  0.41868607     0.15400
N1768       N  0.09977398  0.44117434  0.42031764     0.74490
O1769       O  0.16119424  0.48523161  0.30914802    -0.38960
O1770       O  0.13939425  0.52249166  0.32193656    -0.38900
O1771       O  0.10505434  0.41616439  0.42575936    -0.39610
O1772       O  0.08562000  0.45497266  0.43753156    -0.39670
C1773       C  0.08994461  0.27234508  0.39577330    -0.11950
C1774       C  0.11075736  0.28493868  0.37953716     0.05050
C1775       C  0.13443274  0.26952452  0.37152031    -0.07240
C1776       C  0.13627540  0.24161832  0.37995856    -0.07990
C1777       C  0.11541807  0.22909255  0.39627974    -0.02540
C1778       C  0.09181010  0.24456003  0.40411254     0.04280
N1779       N  0.06884141  0.23205975  0.41890260     0.66790
H1780       H  0.07147238  0.28402074  0.40104463     0.15690
H1781       H  0.15430519  0.22958307  0.37407066     0.15400
N1782       N  0.15617962  0.28127680  0.35431744     0.74490
O1783       O  0.05426560  0.24644495  0.43524944    -0.38960
O1784       O  0.06062614  0.20797787  0.41276338    -0.38900
O1785       O  0.16144998  0.30691781  0.35477045    -0.39610
O1786       O  0.17174096  0.26567482  0.34014321    -0.39670
C1787       C  0.10032514  0.61768958  0.27208668    -0.11950
C1788       C  0.11797223  0.60954113  0.25023829     0.05050
C1789       C  0.14399939  0.59792337  0.25657039    -0.07240
C1790       C  0.15100568  0.59336664  0.28423927    -0.07990
C1791       C  0.13300346  0.60055903  0.30614268    -0.02540
C1792       C  0.10743601  0.61330101  0.29989222     0.04280
N1793       N  0.08789998  0.62085953  0.32113416     0.66790
H1794       H  0.08032821  0.62669860  0.26754833     0.15690
H1795       H  0.17091396  0.58404774  0.28855709     0.15400
N1796       N  0.16336586  0.58993570  0.23535047     0.74490
O1797       O  0.07645121  0.64432937  0.32028491    -0.38960
O1798       O  0.07795481  0.60245336  0.33706472    -0.38900
O1799       O  0.17486034  0.60832859  0.22046398    -0.39610
O1800       O  0.17315959  0.56571010  0.23535784    -0.39670
C1801       C  0.00155483  0.64215248  0.13120874    -0.11950
C1802       C  0.00776947  0.61725834  0.14470390     0.05050
C1803       C  0.98666352  0.59699593  0.14881999    -0.07240
C1804       C  0.95956172  0.60307085  0.14002409    -0.07990
C1805       C  0.95340639  0.62827232  0.12687375    -0.02540
C1806       C  0.97478822  0.64784564  0.12229013     0.04280
N1807       N  0.96948156  0.67418049  0.10972516     0.66790
H1808       H  0.01767180  0.65755804  0.12777028     0.15690
H1809       H  0.94317381  0.58791363  0.14319347     0.15400
N1810       N  0.99228013  0.56986372  0.16009702     0.74490
O1811       O  0.97088483  0.69590666  0.12414429    -0.38960
O1812       O  0.96874540  0.67619266  0.08366643    -0.38900
O1813       O  0.01099752  0.56619886  0.17777899    -0.39610
O1814       O  0.97746334  0.54939991  0.15324683    -0.39670
C1815       C  0.15739036  0.87965478  0.98374496    -0.11950
C1816       C  0.13897900  0.87056668  0.96323671     0.05050
C1817       C  0.11609214  0.85374165  0.97121930    -0.07240
C1818       C  0.11250975  0.84629229  0.99923848    -0.07990
C1819       C  0.13102700  0.85552812  0.01951430    -0.02540
C1820       C  0.15356734  0.87261055  0.01161434     0.04280
N1821       N  0.17361108  0.88189553  0.03130684     0.66790
H1822       H  0.17512286  0.89246813  0.97816126     0.15690
H1823       H  0.09515834  0.83313424  0.00521268     0.15400
N1824       N  0.09603041  0.84448896  0.95157173     0.74490
O1825       O  0.19898469  0.87680013  0.02722558    -0.38960
O1826       O  0.16686594  0.89976137  0.04916055    -0.38900
O1827       O  0.10301045  0.82735056  0.93310522    -0.39610
O1828       O  0.07057474  0.84864844  0.95625311    -0.39670
C1829       C  0.09697783  0.74232833  0.14672949    -0.11950
C1830       C  0.12008868  0.74831998  0.12994352     0.05050
C1831       C  0.13801082  0.72666829  0.12164930    -0.07240
C1832       C  0.13153167  0.69926247  0.12959270    -0.07990
C1833       C  0.10798497  0.69320417  0.14595623    -0.02540
C1834       C  0.09036209  0.71510069  0.15437062     0.04280
N1835       N  0.06476233  0.71004888  0.16908158     0.66790
H1836       H  0.08292704  0.75884405  0.15257761     0.15690
H1837       H  0.14535819  0.68263286  0.12361440     0.15400
N1838       N  0.16324760  0.73218902  0.10632572     0.74490
O1839       O  0.05732930  0.72610055  0.18835822    -0.38960
O1840       O  0.04740670  0.69293175  0.15964485    -0.38900
O1841       O  0.17721553  0.75385553  0.11098403    -0.39610
O1842       O  0.17350479  0.71383894  0.09074570    -0.39670
C1843       C  0.22490410  0.83451664  0.11684115    -0.11950
C1844       C  0.20309220  0.85173323  0.12565391     0.05050
C1845       C  0.20961947  0.87729512  0.13842203    -0.07240
C1846       C  0.23751789  0.88566318  0.14022809    -0.07990
C1847       C  0.25917068  0.86879821  0.13045267    -0.02540
C1848       C  0.25268229  0.84275418  0.11879530     0.04280
N1849       N  0.27370056  0.82510933  0.10720445     0.66790
H1850       H  0.22036671  0.81490451  0.10695293     0.15690
H1851       H  0.24236103  0.90533219  0.14986252     0.15400
N1852       N  0.18850347  0.89484661  0.14991796     0.74490
O1853       O  0.27251778  0.79926957  0.11133098    -0.38960
O1854       O  0.29024284  0.83447667  0.08896506    -0.38900
O1855       O  0.17151823  0.88515201  0.16756591    -0.39610
O1856       O  0.19012115  0.92078480  0.14665782    -0.39670
C1857       C  0.00928915  0.87364595  0.15100153    -0.11950
C1858       C  0.98845556  0.85632924  0.14049719     0.05050
C1859       C  0.99568625  0.83542232  0.12142722    -0.07240
C1860       C  0.02348803  0.83189700  0.11380387    -0.07990
C1861       C  0.04455681  0.84892999  0.12447053    -0.02540
C1862       C  0.03720717  0.87025034  0.14320084     0.04280
N1863       N  0.05752150  0.88864151  0.15451322     0.66790
H1864       H  0.00388005  0.88975062  0.16567731     0.15690
H1865       H  0.02859195  0.81535550  0.09952011     0.15400
N1866       N  0.97540213  0.81655705  0.11076594     0.74490
O1867       O  0.05436832  0.91449629  0.15208635    -0.38960
O1868       O  0.07468601  0.87955706  0.17185344    -0.38900
O1869       O  0.95803380  0.82497279  0.09329432    -0.39610
O1870       O  0.97841018  0.79081794  0.11435193    -0.39670
C1871       C  0.28948175  0.38020780  0.13022005    -0.11950
C1872       C  0.29421985  0.35186923  0.12576197     0.05050
C1873       C  0.27128443  0.33352618  0.12540474    -0.07240
C1874       C  0.24442260  0.34381972  0.12888413    -0.07990
C1875       C  0.23950629  0.37230343  0.13194349    -0.02540
C1876       C  0.26246530  0.39071538  0.13271453     0.04280
N1877       N  0.25890914  0.42014223  0.13458683     0.66790
H1878       H  0.30681183  0.39459139  0.13018711     0.15690
H1879       H  0.22719774  0.32932467  0.12842421     0.15400
N1880       N  0.27468526  0.30439287  0.12122183     0.74490
O1881       O  0.27256062  0.43375215  0.15213624    -0.38960
O1882       O  0.24692479  0.43297505  0.11530346    -0.38900
O1883       O  0.26825324  0.28778748  0.14052677    -0.39610
O1884       O  0.27747621  0.29525304  0.09688273    -0.39670
C1885       C  0.14004293  0.52998883  0.13800051    -0.11950
C1886       C  0.11194503  0.53508234  0.14364589     0.05050
C1887       C  0.09299944  0.51258693  0.14422520    -0.07240
C1888       C  0.10299208  0.48547376  0.14131264    -0.07990
C1889       C  0.13135935  0.48016819  0.13721145    -0.02540
C1890       C  0.15001044  0.50288378  0.13506382     0.04280
N1891       N  0.17925737  0.49897558  0.13131399     0.66790
H1892       H  0.15472213  0.54707220  0.13757857     0.15690
H1893       H  0.08836019  0.46837393  0.14211304     0.15400
N1894       N  0.06361010  0.51688072  0.14717673     0.74490
O1895       O  0.19186286  0.51154829  0.11193055    -0.38960
O1896       O  0.19314504  0.48785878  0.15035963    -0.38900
O1897       O  0.05187895  0.53576198  0.13348573    -0.39610
O1898       O  0.04881999  0.49958096  0.16041208    -0.39670
C1899       C  0.14458446  0.37565047  0.26436088    -0.11950
C1900       C  0.11884256  0.36291075  0.26958393     0.05050
C1901       C  0.10314967  0.35330114  0.24697605    -0.07240
C1902       C  0.11261890  0.35811366  0.21979046    -0.07990
C1903       C  0.13756116  0.37245235  0.21458295    -0.02540
C1904       C  0.15431052  0.38021438  0.23725971     0.04280
N1905       N  0.18132021  0.39240020  0.23326631     0.66790
H1906       H  0.15722009  0.38241055  0.28151987     0.15690
H1907       H  0.09980351  0.35155410  0.20268658     0.15400
N1908       N  0.07760243  0.33863459  0.25118082     0.74490
O1909       O  0.18929926  0.41176492  0.24885492    -0.38960
O1910       O  0.19868231  0.38110327  0.21716742    -0.38900
O1911       O  0.05540424  0.35194120  0.25490783    -0.39610
O1912       O  0.07647616  0.31297368  0.24630369    -0.39670
C1913       C  0.13965694  0.23057105  0.88766632    -0.11950
C1914       C  0.11643259  0.24655678  0.89468773     0.05050
C1915       C  0.08961455  0.23481410  0.89342847    -0.07240
C1916       C  0.08677225  0.20711734  0.88528759    -0.07990
C1917       C  0.10990638  0.19086649  0.87845739    -0.02540
C1918       C  0.13680773  0.20264570  0.87986162     0.04280
N1919       N  0.16121057  0.18722965  0.87248979     0.66790
H1920       H  0.16016818  0.23975926  0.88876832     0.15690
H1921       H  0.06616653  0.19818058  0.88387829     0.15400
N1922       N  0.06510361  0.25070901  0.89971049     0.74490
O1923       O  0.18041420  0.19881552  0.85866672    -0.38960
O1924       O  0.16584876  0.16410332  0.88376645    -0.38900
O1925       O  0.06377230  0.27603883  0.89322062    -0.39610
O1926       O  0.04358661  0.23877090  0.90906385    -0.39670
C1927       C  0.11929727  0.33909881  0.02307713    -0.11950
C1928       C  0.12565776  0.35729415  0.00105984     0.05050
C1929       C  0.13515663  0.38433730  0.00722249    -0.07240
C1930       C  0.13976060  0.39177602  0.03480692    -0.07990
C1931       C  0.13444315  0.37327054  0.05676699    -0.02540
C1932       C  0.12361363  0.34666296  0.05080277     0.04280
N1933       N  0.11845279  0.32646534  0.07218113     0.66790
H1934       H  0.11195045  0.31833125  0.01868186     0.15690
H1935       H  0.14754328  0.41241932  0.03909537     0.15400
N1936       N  0.14081764  0.40440535  0.98590374     0.74490
O1937       O  0.09707853  0.31129483  0.07115712    -0.38960
O1938       O  0.13740310  0.32027184  0.08892644    -0.38900
O1939       O  0.12117898  0.41347001  0.97139640    -0.39610
O1940       O  0.16378997  0.41707475  0.98544784    -0.39670
C1941       C  0.04133831  0.35512672  0.86601789    -0.11950
C1942       C  0.04648644  0.35381601  0.89453011     0.05050
C1943       C  0.02418462  0.35699675  0.91352685    -0.07240
C1944       C  0.99712863  0.35958614  0.90347701    -0.07990
C1945       C  0.99172762  0.35962726  0.87495025    -0.02540
C1946       C  0.01422892  0.35754158  0.85597185     0.04280
N1947       N  0.00995371  0.35580431  0.82664407     0.66790
H1948       H  0.05829313  0.35226753  0.85139617     0.15690
H1949       H  0.98013577  0.36192179  0.91814240     0.15400
N1950       N  0.02863959  0.35817424  0.94294036     0.74490
O1951       O  0.02574809  0.36901722  0.81022273    -0.38960
O1952       O  0.99415682  0.33730097  0.81707215    -0.38900
O1953       O  0.04878177  0.37186192  0.95244211    -0.39610
O1954       O  0.01057100  0.34862265  0.95957157    -0.39670
C1955       C  0.22515386  0.33364293  0.90721448    -0.11950
C1956       C  0.20351496  0.35128722  0.89929362     0.05050
C1957       C  0.21018066  0.37645297  0.88553016    -0.07240
C1958       C  0.23811154  0.38354376  0.88081757    -0.07990
C1959       C  0.25972028  0.36629115  0.88961909    -0.02540
C1960       C  0.25299217  0.34061667  0.90228894     0.04280
N1961       N  0.27398519  0.32162202  0.91098509     0.66790
H1962       H  0.22046172  0.31405270  0.91731767     0.15690
H1963       H  0.24294204  0.40328216  0.87107862     0.15400
N1964       N  0.18920216  0.39572946  0.87738076     0.74490
O1965       O  0.27371893  0.31254204  0.93554782    -0.38960
O1966       O  0.28899007  0.30977039  0.89304779    -0.38900
O1967       O  0.17320942  0.40599946  0.89546082    -0.39610
O1968       O  0.19029041  0.40657219  0.85354724    -0.39670
loop_ 
_geom_bond_atom_site_label_1 
_geom_bond_atom_site_label_2 
_geom_bond_distance 
_geom_bond_site_symmetry_2 
_ccdc_geom_bond_type 
In1           O3   2.236       .  S
In1           O4   2.244       .  S
In1          O12   2.226       .  S
In1           O6   2.263       .  S
In1           O8   2.250       .  S
In1           O9   2.242       .  S
In1          O10   2.228       .  S
In1          O13   2.246       .  S
C2            O8   1.263       .  A
C2           O10   1.262       .  A
C2         C1956   1.484       .  S
O3           C11   1.261       .  A
O4           C11   1.263       .  A
C5           O12   1.257       .  A
C5            O6   1.263       .  A
C5         C1942   1.478       .  S
C7            O9   1.260       .  A
C7           O13   1.259       .  A
C7         C1914   1.466       .  S
C11        C1928   1.485   1_556  S
In14         O16   2.247       .  S
In14         O17   2.233       .  S
In14         O25   2.219       .  S
In14         O19   2.265       .  S
In14         O21   2.264       .  S
In14         O22   2.239       .  S
In14         O23   2.222       .  S
In14         O26   2.238       .  S
C15          O21   1.264       .  A
C15          O23   1.259       .  A
C15        C1931   1.482       .  S
O16          C24   1.263       .  A
O17          C24   1.259       .  A
C18          O25   1.258       .  A
C18          O19   1.265       .  A
C18        C1903   1.483       .  S
C20          O22   1.260       .  A
C20          O26   1.261       .  A
C20        C1875   1.483       .  S
C24        C1889   1.485       .  S
In27         O29   2.230       .  S
In27         O30   2.252       .  S
In27         O38   2.219       .  S
In27         O32   2.260       .  S
In27         O34   2.259       .  S
In27         O35   2.240       .  S
In27         O36   2.218       .  S
In27         O39   2.230       .  S
C28          O34   1.264       .  A
C28          O36   1.260       .  A
C28        C1861   1.484       .  S
O29          C37   1.258       .  A
O30          C37   1.261       .  A
C31          O38   1.260       .  A
C31          O32   1.264       .  A
C31        C1844   1.487       .  S
C33          O35   1.263       .  A
C33          O39   1.262       .  A
C33        C1830   1.473       .  S
C37        C1819   1.474       .  S
In40         O42   2.232       .  S
In40         O43   2.237       .  S
In40         O51   2.222       .  S
In40         O45   2.256       .  S
In40         O47   2.263       .  S
In40         O48   2.238       .  S
In40         O49   2.218       .  S
In40         O52   2.234       .  S
C41          O47   1.265       .  A
C41          O49   1.258       .  A
C41        C1833   1.480       .  S
O42          C50   1.261       .  A
O43          C50   1.261       .  A
C44          O51   1.260       .  A
C44          O45   1.265       .  A
C44        C1886   1.479       .  S
C46          O48   1.262       .  A
C46          O52   1.261       .  A
C46        C1788   1.482       .  S
C50        C1802   1.468       .  S
In53         O55   2.235       .  S
In53         O56   2.244       .  S
In53         O64   2.228       .  S
In53         O58   2.261       .  S
In53         O60   2.260       .  S
In53         O61   2.242       .  S
In53         O62   2.231       .  S
In53         O65   2.240       .  S
C54          O60   1.263       .  A
C54          O62   1.258       .  A
C54        C1774   1.471       .  S
O55          C63   1.261       .  A
O56          C63   1.260       .  A
C57          O64   1.259       .  A
C57          O58   1.263       .  A
C57        C1760   1.473       .  S
C59          O61   1.260       .  A
C59          O65   1.262       .  A
C59        C1900   1.482       .  S
C63        C1746   1.482       .  S
In66         O68   2.225       .  S
In66         O69   2.255       .  S
In66         O77   2.227       .  S
In66         O71   2.253       .  S
In66         O73   2.255       .  S
In66         O74   2.251       .  S
In66         O75   2.225       .  S
In66         O78   2.227       .  S
C67          O73   1.264       .  A
C67          O75   1.258       .  A
C67        C1872   1.482       .  S
O68          C76   1.259       .  A
O69          C76   1.264       .  A
C70          O77   1.261       .  A
C70          O71   1.264       .  A
C70        C1732   1.479       .  S
C72          O74   1.263       .  A
C72          O78   1.260       .  A
C72        C1707   1.471       .  S
C76        C1718   1.480       .  S
In79         O81   2.237       .  S
In79         O82   2.248       .  S
In79         O90   2.231       .  S
In79         O84   2.249       .  S
In79         O86   2.263       .  S
In79         O87   2.230       .  S
In79         O88   2.216       .  S
In79         O91   2.249       .  S
C80          O86   1.263       .  A
C80          O88   1.256       .  A
C80        C1805   1.476       .  S
O81          C89   1.258       .  A
O82          C89   1.261       .  A
C83          O90   1.261       .  A
C83          O84   1.262       .  A
C83        C1690   1.480       .  S
C85          O87   1.261       .  A
C85          O91   1.264       .  A
C85        C1676   1.482       .  S
C89        C1665   1.478       .  S
In92         O94   2.235       .  S
In92         O95   2.246       .  S
In92        O103   2.237       .  S
In92         O97   2.257       .  S
In92         O99   2.257       .  S
In92        O100   2.239       .  S
In92        O101   2.228       .  S
In92        O104   2.243       .  S
C93          O99   1.263       .  A
C93         O101   1.257       .  A
C93        C1648   1.466       .  S
O94         C102   1.260       .  A
O95         C102   1.261       .  A
C96         O103   1.260       .  A
C96          O97   1.262       .  A
C96        C1637   1.479       .  S
C98         O100   1.262       .  A
C98         O104   1.262       .  A
C98        C1606   1.468       .  S
C102       C1620   1.474   1_545  S
In105       O107   2.236       .  S
In105       O108   2.253       .  S
In105       O116   2.242       .  S
In105       O110   2.256       .  S
In105       O112   2.262       .  S
In105       O113   2.252       .  S
In105       O114   2.243       .  S
In105       O117   2.236       .  S
C106        O112   1.260       .  A
C106        O114   1.256       .  A
C106       C1592   1.474       .  S
O107        C115   1.261       .  A
O108        C115   1.263       .  A
C109        O116   1.258       .  A
C109        O110   1.261       .  A
C109       C1578   1.471       .  S
C111        O113   1.264       .  A
C111        O117   1.261       .  A
C111       C1634   1.486       .  S
C115       C1564   1.482       .  S
In118       O120   2.245       .  S
In118       O121   2.236       .  S
In118       O129   2.217       .  S
In118       O123   2.269       .  S
In118       O125   2.266       .  S
In118       O126   2.234       .  S
In118       O127   2.234       .  S
In118       O130   2.245       .  S
C119        O125   1.263       .  A
C119        O127   1.257       .  A
C119       C1567   1.476       .  S
O120        C128   1.264       .  A
O121        C128   1.262       .  A
C122        O129   1.257       .  A
C122        O123   1.266       .  A
C122       C1550   1.486       .  S
C124        O126   1.260       .  A
C124        O130   1.260       .  A
C124       C1536   1.476       .  S
C128       C1522   1.486       .  S
In131       O133   2.240       .  S
In131       O134   2.236       .  S
In131       O142   2.220       .  S
In131       O136   2.263       .  S
In131       O138   2.259       .  S
In131       O139   2.242       .  S
In131       O140   2.223       .  S
In131       O143   2.236       .  S
C132        O138   1.265       .  A
C132        O140   1.259       .  A
C132       C1508   1.485       .  S
O133        C141   1.263       .  A
O134        C141   1.261       .  A
C135        O142   1.258       .  A
C135        O136   1.263       .  A
C135       C1497   1.479       .  S
C137        O139   1.261       .  A
C137        O143   1.261       .  A
C137       C1480   1.476       .  S
C141       C1466   1.485       .  S
In144       O146   2.249       .  S
In144       O147   2.227       .  S
In144       O155   2.226       .  S
In144       O149   2.262       .  S
In144       O151   2.266       .  S
In144       O152   2.240       .  S
In144       O153   2.226       .  S
In144       O156   2.254       .  S
C145        O151   1.263       .  A
C145        O153   1.259       .  A
C145       C1438   1.485       .  S
O146        C154   1.264       .  A
O147        C154   1.261       .  A
C148        O155   1.258       .  A
C148        O149   1.263       .  A
C148       C1452   1.468       .  S
C150        O152   1.259       .  A
C150        O156   1.259       .  A
C150       C1424   1.485       .  S
C154       C1581   1.478       .  S
In157       O159   2.234       .  S
In157       O160   2.249       .  S
In157       O168   2.219       .  S
In157       O162   2.269       .  S
In157       O164   2.253       .  S
In157       O165   2.238       .  S
In157       O166   2.234       .  S
In157       O169   2.246       .  S
C158        O164   1.263       .  A
C158        O166   1.260       .  A
C158       C1410   1.474       .  S
O159        C167   1.259       .  A
O160        C167   1.263       .  A
C161        O168   1.256       .  A
C161        O162   1.263       .  A
C161       C1623   1.481       .  S
C163        O165   1.262       .  A
C163        O169   1.262       .  A
C163       C1455   1.473       .  S
C167       C1396   1.485       .  S
In170       O172   2.232       .  S
In170       O173   2.247       .  S
In170       O181   2.231       .  S
In170       O175   2.260       .  S
In170       O177   2.246       .  S
In170       O178   2.235       .  S
In170       O179   2.242       .  S
In170       O182   2.238       .  S
C171        O177   1.263       .  A
C171        O179   1.260       .  A
C171       C1679   1.473       .  S
O172        C180   1.258       .  A
O173        C180   1.261       .  A
C174        O181   1.258       .  A
C174        O175   1.262       .  A
C174       C1382   1.483       .  S
C176        O178   1.262       .  A
C176        O182   1.262       .  A
C176       C1368   1.477       .  S
C180       C1858   1.475       .  S
In183       O185   2.242       .  S
In183       O186   2.243       .  S
In183       O194   2.234       .  S
In183       O188   2.260       .  S
In183       O190   2.265       .  S
In183       O191   2.234       .  S
In183       O192   2.221       .  S
In183       O195   2.244       .  S
C184        O190   1.265       .  A
C184        O192   1.258       .  A
C184       C1357   1.483       .  S
O185        C193   1.258       .  A
O186        C193   1.261       .  A
C187        O194   1.259       .  A
C187        O188   1.262       .  A
C187       C1340   1.485       .  S
C189        O191   1.262       .  A
C189        O195   1.262       .  A
C189       C1312   1.482       .  S
C193       C1326   1.484       .  S
In196       O198   2.241       .  S
In196       O199   2.239       .  S
In196       O207   2.222       .  S
In196       O201   2.257       .  S
In196       O203   2.268       .  S
In196       O204   2.244       .  S
In196       O205   2.220       .  S
In196       O208   2.240       .  S
C197        O203   1.263       .  A
C197        O205   1.258       .  A
C197       C1298   1.483       .  S
O198        C206   1.262       .  A
O199        C206   1.263       .  A
C200        O207   1.259       .  A
C200        O201   1.266       .  A
C200       C1287   1.484       .  S
C202        O204   1.260       .  A
C202        O208   1.260       .  A
C202       C1270   1.477       .  S
C206       C1343   1.487       .  S
In209       O211   2.231       .  S
In209       O212   2.245       .  S
In209       O220   2.240       .  S
In209       O214   2.253       .  S
In209       O216   2.247       .  S
In209       O217   2.248       .  S
In209       O218   2.232       .  S
In209       O221   2.233       .  S
C210        O216   1.263       .  A
C210        O218   1.260       .  A
C210       C1329   1.472       .  S
O211        C219   1.261       .  A
O212        C219   1.265       .  A
C213        O220   1.256       .  A
C213        O214   1.260       .  A
C213       C1256   1.467       .  S
C215        O217   1.263       .  A
C215        O221   1.259       .  A
C215       C1693   1.485       .  S
C219       C1242   1.486       .  S
In222       O224   2.230       .  S
In222       O225   2.248       .  S
In222       O233   2.227       .  S
In222       O227   2.260       .  S
In222       O229   2.250       .  S
In222       O230   2.248       .  S
In222       O231   2.239       .  S
In222       O234   2.236       .  S
C223        O229   1.262       .  A
C223        O231   1.260       .  A
C223       C1228   1.472       .  S
O224        C232   1.260       .  A
O225        C232   1.263       .  A
C226        O233   1.260       .  A
C226        O227   1.264       .  A
C226       C1245   1.483       .  S
C228        O230   1.262       .  A
C228        O234   1.259       .  A
C228       C1735   1.485       .  S
C232       C1301   1.473       .  S
In235       O237   2.233       .  S
In235       O238   2.246       .  S
In235       O246   2.230       .  S
In235       O240   2.255       .  S
In235       O242   2.253       .  S
In235       O243   2.247       .  S
In235       O244   2.231       .  S
In235       O247   2.229       .  S
C236        O242   1.262       .  A
C236        O244   1.258       .  A
C236       C1214   1.478       .  S
O237        C245   1.260       .  A
O238        C245   1.263       .  A
C239        O246   1.258       .  A
C239        O240   1.262       .  A
C239       C1371   1.473       .  S
C241        O243   1.263       .  A
C241        O247   1.262       .  A
C241       C1200   1.479       .  S
C245       C1186   1.482       .  S
In248       O250   2.232       .  S
In248       O251   2.253       .  S
In248       O259   2.237       .  S
In248       O253   2.250       .  S
In248       O255   2.258       .  S
In248       O256   2.251       .  S
In248       O257   2.229       .  S
In248       O260   2.234       .  S
C249        O255   1.264       .  A
C249        O257   1.260       .  A
C249       C1172   1.483       .  S
O250        C258   1.260       .  A
O251        C258   1.263       .  A
C252        O259   1.260       .  A
C252        O253   1.263       .  A
C252       C1158   1.471       .  S
C254        O256   1.263       .  A
C254        O260   1.261       .  A
C254       C1130   1.479       .  S
C258       C1144   1.476       .  S
In261       O263   2.232       .  S
In261       O264   2.247       .  S
In261       O272   2.220       .  S
In261       O266   2.265       .  S
In261       O268   2.264       .  S
In261       O269   2.242       .  S
In261       O270   2.216       .  S
In261       O273   2.235       .  S
C262        O268   1.266       .  A
C262        O270   1.258       .  A
C262       C1203   1.486       .  S
O263        C271   1.261       .  A
O264        C271   1.262       .  A
C265        O272   1.259       .  A
C265        O266   1.265       .  A
C265       C1147   1.482       .  S
C267        O269   1.262       .  A
C267        O273   1.263       .  A
C267       C1354   1.485       .  S
C271       C1441   1.475       .  S
In274       O276   2.245       .  S
In274       O277   2.246       .  S
In274       O285   2.232       .  S
In274       O279   2.253       .  S
In274       O281   2.260       .  S
In274       O282   2.245       .  S
In274       O283   2.237       .  S
In274       O286   2.241       .  S
C275        O281   1.261       .  A
C275        O283   1.258       .  A
C275       C1539   1.469       .  S
O276        C284   1.260       .  A
O277        C284   1.259       .  A
C278        O285   1.260       .  A
C278        O279   1.262       .  A
C278       C1116   1.480       .  S
C280        O282   1.260       .  A
C280        O286   1.262       .  A
C280       C1088   1.483       .  S
C284       C1102   1.468       .  S
In287       O289   2.245       .  S
In287       O290   2.235       .  S
In287       O298   2.222       .  S
In287       O292   2.262       .  S
In287       O294   2.251       .  S
In287       O295   2.242       .  S
In287       O296   2.234       .  S
In287       O299   2.243       .  S
C288        O294   1.261       .  A
C288        O296   1.260       .  A
C288       C1074   1.485       .  S
O289        C297   1.262       .  A
O290        C297   1.261       .  A
C291        O298   1.257       .  A
C291        O292   1.262       .  A
C291       C1105   1.469       .  S
C293        O295   1.260       .  A
C293        O299   1.261       .  A
C293       C1284   1.479       .  S
C297       C1595   1.477       .  S
In300       O302   2.240       .  S
In300       O303   2.238       .  S
In300       O311   2.227       .  S
In300       O305   2.263       .  S
In300       O307   2.265       .  S
In300       O308   2.249       .  S
In300       O309   2.227       .  S
In300       O312   2.234       .  S
C301        O307   1.263       .  A
C301        O309   1.259       .  A
C301       C1060   1.482       .  S
O302        C310   1.263       .  A
O303        C310   1.263       .  A
C304        O311   1.258       .  A
C304        O305   1.264       .  A
C304       C1049   1.481       .  S
C306        O308   1.261       .  A
C306        O312   1.258       .  A
C306       C1494   1.483       .  S
C310       C1032   1.486       .  S
In313       O315   2.252       .  S
In313       O316   2.230       .  S
In313       O324   2.222       .  S
In313       O318   2.260       .  S
In313       O320   2.262       .  S
In313       O321   2.235       .  S
In313       O322   2.210       .  S
In313       O325   2.253       .  S
C314        O320   1.265       .  A
C314        O322   1.259       .  A
C314       C1791   1.484       .  S
O315        C323   1.260       .  A
O316        C323   1.260       .  A
C317        O324   1.260       .  A
C317        O318   1.265       .  A
C317       C1035   1.481       .  S
C319        O321   1.260       .  A
C319        O325   1.261       .  A
C319       C1763   1.472       .  S
C323       C1021   1.469       .  S
In326       O328   2.239       .  S
In326       O329   2.244       .  S
In326       O337   2.233       .  S
In326       O331   2.258       .  S
In326       O333   2.252       .  S
In326       O334   2.238       .  S
In326       O335   2.234       .  S
In326       O338   2.243       .  S
C327        O333   1.264       .  A
C327        O335   1.260       .  A
C327       C1018   1.472       .  S
O328        C336   1.259       .  A
O329        C336   1.263       .  A
C330        O337   1.257       .  A
C330        O331   1.262       .  A
C330       C1315   1.473       .  S
C332        O334   1.261       .  A
C332        O338   1.261       .  A
C332       C1161   1.481       .  S
C336       C1004   1.483       .  S
In339       O341   2.237       .  S
In339       O342   2.245       .  S
In339       O350   2.220       .  S
In339       O344   2.263       .  S
In339       O346   2.248       .  S
In339       O347   2.249       .  S
In339       O348   2.237       .  S
In339       O351   2.235       .  S
C340        O346   1.262       .  A
C340        O348   1.260       .  A
C340        C990   1.479       .  S
O341        C349   1.262       .  A
O342        C349   1.263       .  A
C343        O350   1.259       .  A
C343        O344   1.263       .  A
C343       C1007   1.485       .  S
C345        O347   1.262       .  A
C345        O351   1.259       .  A
C345       C1119   1.485       .  S
C349       C1063   1.472       .  S
In352       O354   2.237       .  S
In352       O355   2.232       .  S
In352       O363   2.217       .  S
In352       O357   2.273       .  S
In352       O359   2.266       .  S
In352       O360   2.241       .  S
In352       O361   2.208       .  S
In352       O364   2.256       .  S
C353        O359   1.266       .  A
C353        O361   1.260       .  A
C353       C1816   1.485       .  S
O354        C362   1.263       .  A
O355        C362   1.263       .  A
C356        O363   1.254       .  A
C356        O357   1.265       .  A
C356       C1483   1.483       .  S
C358        O360   1.259       .  A
C358        O364   1.259       .  A
C358        C962   1.473       .  S
C362        C979   1.470       .  S
In365       O367   2.235       .  S
In365       O368   2.245       .  S
In365       O376   2.216       .  S
In365       O370   2.265       .  S
In365       O372   2.267       .  S
In365       O373   2.244       .  S
In365       O374   2.212       .  S
In365       O377   2.231       .  S
C366        O372   1.265       .  A
C366        O374   1.260       .  A
C366       C1721   1.487       .  S
O367        C375   1.262       .  A
O368        C375   1.262       .  A
C369        O376   1.259       .  A
C369        O370   1.266       .  A
C369       C1091   1.485       .  S
C371        O373   1.263       .  A
C371        O377   1.260       .  A
C371       C1959   1.483       .  S
C375        C948   1.474       .  S
In378       O380   2.242       .  S
In378       O381   2.235       .  S
In378       O389   2.227       .  S
In378       O383   2.269       .  S
In378       O385   2.259       .  S
In378       O386   2.249       .  S
In378       O387   2.223       .  S
In378       O390   2.241       .  S
C379        O385   1.265       .  A
C379        O387   1.261       .  A
C379       C1399   1.481       .  S
O380        C388   1.264       .  A
O381        C388   1.262       .  A
C382        O389   1.256       .  A
C382        O383   1.262       .  A
C382        C976   1.471       .  S
C384        O386   1.259       .  A
C384        O390   1.258       .  A
C384        C934   1.467       .  S
C388        C920   1.485   1_556  S
In391       O393   2.243       .  S
In391       O394   2.232       .  S
In391       O402   2.214       .  S
In391       O396   2.273       .  S
In391       O398   2.263       .  S
In391       O399   2.237       .  S
In391       O400   2.218       .  S
In391       O403   2.246       .  S
C392        O398   1.265       .  A
C392        O400   1.260       .  A
C392        C937   1.476       .  S
O393        C401   1.263       .  A
O394        C401   1.262       .  A
C395        O402   1.257       .  A
C395        O396   1.265       .  A
C395        C951   1.482       .  S
C397        O399   1.261       .  A
C397        O403   1.260       .  A
C397        C993   1.484       .  S
C401        C906   1.486       .  S
In404       O406   2.235       .  S
In404       O407   2.240       .  S
In404       O415   2.219       .  S
In404       O409   2.266       .  S
In404       O411   2.267       .  S
In404       O412   2.237       .  S
In404       O413   2.223       .  S
In404       O416   2.241       .  S
C405        O411   1.264       .  A
C405        O413   1.258       .  A
C405       C1609   1.476       .  S
O406        C414   1.263       .  A
O407        C414   1.261       .  A
C408        O415   1.259       .  A
C408        O409   1.264       .  A
C408        C892   1.486       .  S
C410        O412   1.260       .  A
C410        O416   1.262       .  A
C410        C878   1.483       .  S
C414        C864   1.482   1_556  S
In417       O419   2.245       .  S
In417       O420   2.234       .  S
In417       O428   2.228       .  S
In417       O422   2.267       .  S
In417       O424   2.257       .  S
In417       O425   2.231       .  S
In417       O426   2.225       .  S
In417       O429   2.237       .  S
C418        O424   1.264       .  A
C418        O426   1.259       .  A
C418        C909   1.481       .  S
O419        C427   1.261       .  A
O420        C427   1.260       .  A
C421        O428   1.257       .  A
C421        O422   1.263       .  A
C421        C850   1.486       .  S
C423        O425   1.261       .  A
C423        O429   1.263       .  A
C423       C1413   1.478       .  S
C427       C1259   1.473   1_556  S
In430       O432   2.244       .  S
In430       O433   2.238       .  S
In430       O441   2.233       .  S
In430       O435   2.254       .  S
In430       O437   2.264       .  S
In430       O438   2.241       .  S
In430       O439   2.223       .  S
In430       O442   2.235       .  S
C431        O437   1.264       .  A
C431        O439   1.256       .  A
C431       C1469   1.481       .  S
O432        C440   1.261       .  A
O433        C440   1.261       .  A
C434        O441   1.259       .  A
C434        O435   1.262       .  A
C434       C1427   1.479       .  S
C436        O438   1.262       .  A
C436        O442   1.261       .  A
C436       C1217   1.483       .  S
C440        C836   1.474       .  S
In443       O445   2.232       .  S
In443       O446   2.244       .  S
In443       O454   2.231       .  S
In443       O448   2.258       .  S
In443       O450   2.255       .  S
In443       O451   2.246       .  S
In443       O452   2.241       .  S
In443       O455   2.235       .  S
C444        O450   1.261       .  A
C444        O452   1.257       .  A
C444        C839   1.468       .  S
O445        C453   1.261       .  A
O446        C453   1.263       .  A
C447        O454   1.259       .  A
C447        O448   1.262       .  A
C447        C822   1.483       .  S
C449        O451   1.262       .  A
C449        O455   1.261       .  A
C449       C1046   1.485       .  S
C453        C808   1.480       .  S
In456       O458   2.250       .  S
In456       O459   2.237       .  S
In456       O467   2.221       .  S
In456       O461   2.259       .  S
In456       O463   2.266       .  S
In456       O464   2.236       .  S
In456       O465   2.226       .  S
In456       O468   2.240       .  S
C457        O463   1.262       .  A
C457        O465   1.258       .  A
C457        C811   1.487       .  S
O458        C466   1.260       .  A
O459        C466   1.260       .  A
C460        O467   1.260       .  A
C460        O461   1.264       .  A
C460       C1662   1.485       .  S
C462        O464   1.262       .  A
C462        O468   1.263       .  A
C462        C853   1.479       .  S
C466        C794   1.477       .  S
In469       O471   2.242       .  S
In469       O472   2.247       .  S
In469       O480   2.236       .  S
In469       O474   2.253       .  S
In469       O476   2.247       .  S
In469       O477   2.258       .  S
In469       O478   2.245       .  S
In469       O481   2.231       .  S
C470        O476   1.261       .  A
C470        O478   1.260       .  A
C470        C797   1.472       .  S
O471        C479   1.260       .  A
O472        C479   1.260       .  A
C473        O480   1.259       .  A
C473        O474   1.261       .  A
C473        C881   1.479       .  S
C475        O477   1.261       .  A
C475        O481   1.259       .  A
C475        C780   1.470       .  S
C479       C1945   1.482       .  S
In482       O484   2.250       .  S
In482       O485   2.232       .  S
In482       O493   2.211       .  S
In482       O487   2.273       .  S
In482       O489   2.260       .  S
In482       O490   2.231       .  S
In482       O491   2.217       .  S
In482       O494   2.241       .  S
C483        O489   1.266       .  A
C483        O491   1.259       .  A
C483       C1273   1.485       .  S
O484        C492   1.260       .  A
O485        C492   1.259       .  A
C486        O493   1.256       .  A
C486        O487   1.265       .  A
C486       C1749   1.481       .  S
C488        O490   1.260       .  A
C488        O494   1.262       .  A
C488        C766   1.468       .  S
C492        C755   1.466       .  S
In495       O497   2.243       .  S
In495       O498   2.234       .  S
In495       O506   2.217       .  S
In495       O500   2.260       .  S
In495       O502   2.268       .  S
In495       O503   2.233       .  S
In495       O504   2.213       .  S
In495       O507   2.244       .  S
C496        O502   1.264       .  A
C496        O504   1.259       .  A
C496        C783   1.476       .  S
O497        C505   1.262       .  A
O498        C505   1.262       .  A
C499        O506   1.258       .  A
C499        O500   1.265       .  A
C499        C769   1.479       .  S
C501        O503   1.261       .  A
C501        O507   1.261       .  A
C501       C1077   1.481       .  S
C505        C825   1.485       .  S
In508       O510   2.235       .  S
In508       O511   2.241       .  S
In508       O519   2.225       .  S
In508       O513   2.265       .  S
In508       O515   2.263       .  S
In508       O516   2.246       .  S
In508       O517   2.222       .  S
In508       O520   2.234       .  S
C509        O515   1.265       .  A
C509        O517   1.260       .  A
C509       C1133   1.484       .  S
O510        C518   1.262       .  A
O511        C518   1.262       .  A
C512        O519   1.257       .  A
C512        O513   1.265       .  A
C512        C923   1.484       .  S
C514        O516   1.263       .  A
C514        O520   1.261       .  A
C514       C1847   1.481       .  S
C518        C738   1.481       .  S
In521       O523   2.241       .  S
In521       O524   2.240       .  S
In521       O532   2.230       .  S
In521       O526   2.253       .  S
In521       O528   2.258       .  S
In521       O529   2.250       .  S
In521       O530   2.227       .  S
In521       O533   2.234       .  S
C522        O528   1.262       .  A
C522        O530   1.257       .  A
C522        C752   1.467       .  S
O523        C531   1.263       .  A
O524        C531   1.262       .  A
C525        O532   1.261       .  A
C525        O526   1.263       .  A
C525       C1189   1.486       .  S
C527        O529   1.261       .  A
C527        O533   1.258       .  A
C527        C710   1.476       .  S
C531        C724   1.481       .  S
In534       O536   2.236       .  S
In534       O537   2.245       .  S
In534       O545   2.226       .  S
In534       O539   2.254       .  S
In534       O541   2.261       .  S
In534       O542   2.248       .  S
In534       O543   2.222       .  S
In534       O546   2.244       .  S
C535        O541   1.262       .  A
C535        O543   1.258       .  A
C535        C965   1.468       .  S
O536        C544   1.260       .  A
O537        C544   1.262       .  A
C538        O545   1.261       .  A
C538        O539   1.262       .  A
C538       C1917   1.476       .  S
C540        O542   1.261       .  A
C540        O546   1.261       .  A
C540        C696   1.484       .  S
C544        C895   1.479       .  S
In547       O549   2.234       .  S
In547       O550   2.251       .  S
In547       O558   2.229       .  S
In547       O552   2.254       .  S
In547       O554   2.265       .  S
In547       O555   2.244       .  S
In547       O556   2.233       .  S
In547       O559   2.246       .  S
C548        O554   1.262       .  A
C548        O556   1.256       .  A
C548        C727   1.478       .  S
O549        C557   1.260       .  A
O550        C557   1.263       .  A
C551        O558   1.262       .  A
C551        O552   1.264       .  A
C551        C682   1.487       .  S
C553        O555   1.262       .  A
C553        O559   1.260       .  A
C553       C1777   1.474       .  S
C557        C671   1.480       .  S
In560       O562   2.240       .  S
In560       O563   2.243       .  S
In560       O571   2.224       .  S
In560       O565   2.270       .  S
In560       O567   2.264       .  S
In560       O568   2.239       .  S
In560       O569   2.224       .  S
In560       O572   2.238       .  S
C561        O567   1.266       .  A
C561        O569   1.259       .  A
C561        C699   1.487       .  S
O562        C570   1.261       .  A
O563        C570   1.261       .  A
C564        O571   1.259       .  A
C564        O565   1.264       .  A
C564        C668   1.489       .  S
C566        O568   1.262       .  A
C566        O572   1.263       .  A
C566       C1553   1.483       .  S
C570       C1511   1.475   1_545  S
In573       O575   2.238       .  S
In573       O576   2.240       .  S
In573       O584   2.220       .  S
In573       O578   2.260       .  S
In573       O580   2.268       .  S
In573       O581   2.240       .  S
In573       O582   2.216       .  S
In573       O585   2.240       .  S
C574        O580   1.265       .  A
C574        O582   1.258       .  A
C574        C867   1.481       .  S
O575        C583   1.261       .  A
O576        C583   1.263       .  A
C577        O584   1.261       .  A
C577        O578   1.264       .  A
C577        C713   1.487       .  S
C579        O581   1.262       .  A
C579        O585   1.261       .  A
C579        C654   1.482       .  S
C583       C1385   1.485   1_545  S
In586       O588   2.248       .  S
In586       O589   2.236       .  S
In586       O597   2.219       .  S
In586       O591   2.267       .  S
In586       O593   2.260       .  S
In586       O594   2.229       .  S
In586       O595   2.227       .  S
In586       O598   2.251       .  S
C587        O593   1.263       .  A
C587        O595   1.259       .  A
C587        C657   1.487       .  S
O588        C596   1.260       .  A
O589        C596   1.258       .  A
C590        O597   1.258       .  A
C590        O591   1.262       .  A
C590        C640   1.481       .  S
C592        O594   1.260       .  A
C592        O598   1.264       .  A
C592       C1231   1.482       .  S
C596       C1651   1.470       .  S
In599       O601   2.233       .  S
In599       O602   2.247       .  S
In599       O610   2.233       .  S
In599       O604   2.258       .  S
In599       O606   2.254       .  S
In599       O607   2.251       .  S
In599       O608   2.229       .  S
In599       O611   2.234       .  S
C600        O606   1.264       .  A
C600        O608   1.261       .  A
C600        C626   1.483       .  S
O601        C609   1.262       .  A
O602        C609   1.263       .  A
C603        O610   1.258       .  A
C603        O604   1.263       .  A
C603       C1525   1.483       .  S
C605        O607   1.262       .  A
C605        O611   1.260       .  A
C605        C685   1.480       .  S
C609       C1175   1.475   1_545  S
In612       O614   2.227       .  S
In612       O615   2.240       .  S
In612       O623   2.208       .  S
In612       O617   2.269       .  S
In612       O619   2.258       .  S
In612       O620   2.239       .  S
In612       O621   2.213       .  S
In612       O624   2.235       .  S
C613        O619   1.267       .  A
C613        O621   1.260       .  A
C613        C741   1.483       .  S
O614        C622   1.261       .  A
O615        C622   1.263       .  A
C616        O623   1.257       .  A
C616        O617   1.267       .  A
C616       C1704   1.486       .  S
C618        O620   1.264       .  A
C618        O624   1.261       .  A
C618        C629   1.486       .  S
C622        C643   1.471       .  S
C625        C626   1.404       .  A
C625        C630   1.401       .  A
C625        H632   1.084       .  S
C626        C627   1.415       .  A
C627        C628   1.403       .  A
C627        N634   1.435       .  S
C628        C629   1.406       .  A
C628        H633   1.083       .  S
C629        C630   1.415       .  A
C630        N631   1.434       .  S
N631        O635   1.262       .  A
N631        O636   1.262       .  A
N634        O637   1.262       .  A
N634        O638   1.263       .  A
C639        C640   1.404       .  A
C639        C644   1.400       .  A
C639        H646   1.084       .  S
C640        C641   1.414       .  A
C641        C642   1.405       .  A
C641        N648   1.433       .  S
C642        C643   1.403       .  A
C642        H647   1.084       .  S
C643        C644   1.415       .  A
C644        N645   1.441       .  S
N645        O649   1.263       .  A
N645        O650   1.261       .  A
N648        O651   1.262       .  A
N648        O652   1.263       .  A
C653        C654   1.405       .  A
C653        C658   1.405       .  A
C653        H660   1.084       .  S
C654        C655   1.414       .  A
C655        C656   1.400       .  A
C655        N662   1.435       .  S
C656        C657   1.406       .  A
C656        H661   1.084       .  S
C657        C658   1.416       .  A
C658        N659   1.435       .  S
N659        O663   1.263       .  A
N659        O664   1.262       .  A
N662        O665   1.263       .  A
N662        O666   1.263       .  A
C667        C668   1.407       .  A
C667        C672   1.399       .  A
C667        H674   1.083       .  S
C668        C669   1.417       .  A
C669        C670   1.406       .  A
C669        N676   1.433       .  S
C670        C671   1.404       .  A
C670        H675   1.084       .  S
C671        C672   1.411       .  A
C672        N673   1.433       .  S
N673        O677   1.262       .  A
N673        O678   1.262       .  A
N676        O679   1.262       .  A
N676        O680   1.262       .  A
C681        C682   1.406       .  A
C681        C686   1.401       .  A
C681        H688   1.083       .  S
C682        C683   1.417       .  A
C683        C684   1.406       .  A
C683        N690   1.436       .  S
C684        C685   1.404       .  A
C684        H689   1.084       .  S
C685        C686   1.414       .  A
C686        N687   1.437       .  S
N687        O691   1.263       .  A
N687        O692   1.263       .  A
N690        O693   1.263       .  A
N690        O694   1.263       .  A
C695        C696   1.403       .  A
C695        C700   1.399       .  A
C695        H702   1.084       .  S
C696        C697   1.417       .  A
C697        C698   1.408       .  A
C697        N704   1.437       .  S
C698        C699   1.405       .  A
C698        H703   1.083       .  S
C699        C700   1.415       .  A
C700        N701   1.431       .  S
N701        O705   1.262       .  A
N701        O706   1.262       .  A
N704        O707   1.263       .  A
N704        O708   1.263       .  A
C709        C710   1.403       .  A
C709        C714   1.405       .  A
C709        H716   1.084       .  S
C710        C711   1.410       .  A
C711        C712   1.398       .  A
C711        N718   1.433       .  S
C712        C713   1.407       .  A
C712        H717   1.083       .  S
C713        C714   1.417       .  A
C714        N715   1.433       .  S
N715        O719   1.262       .  A
N715        O720   1.262       .  A
N718        O721   1.262       .  A
N718        O722   1.262       .  A
C723        C724   1.404       .  A
C723        C728   1.404   1_655  A
C723        H730   1.084       .  S
C724        C725   1.416   1_655  A
C725        C726   1.404       .  A
C725        N732   1.437       .  S
C726        C727   1.403       .  A
C726        H731   1.084       .  S
C727        C728   1.415       .  A
C728        N729   1.440       .  S
N729        O733   1.263       .  A
N729        O734   1.263       .  A
N732        O735   1.263   1_455  A
N732        O736   1.262       .  A
C737        C738   1.403       .  A
C737        C742   1.401   1_565  A
C737        H744   1.081       .  S
C738        C739   1.413       .  A
C739        C740   1.403   1_565  A
C739        N746   1.431       .  S
C740        C741   1.405       .  A
C740        H745   1.079       .  S
C741        C742   1.417       .  A
C742        N743   1.437       .  S
N743        O747   1.263   1_545  A
N743        O748   1.263       .  A
N746        O749   1.262       .  A
N746        O750   1.262   1_565  A
C751        C752   1.400       .  A
C751        C756   1.399       .  A
C751        H758   1.084       .  S
C752        C753   1.417       .  A
C753        C754   1.409       .  A
C753        N760   1.443       .  S
C754        C755   1.402       .  A
C754        H759   1.083       .  S
C755        C756   1.410       .  A
C756        N757   1.441       .  S
N757        O761   1.263       .  A
N757        O762   1.262       .  A
N760        O763   1.262       .  A
N760        O764   1.263       .  A
C765        C766   1.398       .  A
C765        C770   1.398       .  A
C765        H772   1.084       .  S
C766        C767   1.416       .  A
C767        C768   1.407       .  A
C767        N774   1.440       .  S
C768        C769   1.404       .  A
C768        H773   1.083       .  S
C769        C770   1.416       .  A
C770        N771   1.437       .  S
N771        O775   1.263       .  A
N771        O776   1.263       .  A
N774        O777   1.263       .  A
N774        O778   1.262       .  A
C779        C780   1.404       .  A
C779        C784   1.410       .  A
C779        H786   1.084       .  S
C780        C781   1.413       .  A
C781        C782   1.398       .  A
C781        N788   1.443       .  S
C782        C783   1.402       .  A
C782        H787   1.084       .  S
C783        C784   1.416       .  A
C784        N785   1.440       .  S
N785        O789   1.263       .  A
N785        O790   1.263       .  A
N788        O791   1.263       .  A
N788        O792   1.263       .  A
C793        C794   1.401       .  A
C793        C798   1.402       .  A
C793        H800   1.084       .  S
C794        C795   1.415       .  A
C795        C796   1.407       .  A
C795        N802   1.441       .  S
C796        C797   1.403       .  A
C796        H801   1.084       .  S
C797        C798   1.417       .  A
C798        N799   1.442       .  S
N799        O803   1.263       .  A
N799        O804   1.261       .  A
N802        O805   1.263       .  A
N802        O806   1.263       .  A
C807        C808   1.405       .  A
C807        C812   1.406       .  A
C807        H814   1.084       .  S
C808        C809   1.413       .  A
C809        C810   1.400       .  A
C809        N816   1.437       .  S
C810        C811   1.406       .  A
C810        H815   1.083       .  S
C811        C812   1.416       .  A
C812        N813   1.435       .  S
N813        O817   1.263       .  A
N813        O818   1.262       .  A
N816        O819   1.263       .  A
N816        O820   1.263       .  A
C821        C822   1.405       .  A
C821        C826   1.401       .  A
C821        H828   1.084       .  S
C822        C823   1.414       .  A
C823        C824   1.403       .  A
C823        N830   1.434       .  S
C824        C825   1.406       .  A
C824        H829   1.083       .  S
C825        C826   1.415       .  A
C826        N827   1.434       .  S
N827        O831   1.262       .  A
N827        O832   1.262       .  A
N830        O833   1.262       .  A
N830        O834   1.263       .  A
C835        C836   1.402       .  A
C835        C840   1.402       .  A
C835        H842   1.084       .  S
C836        C837   1.416       .  A
C837        C838   1.407       .  A
C837        N844   1.441       .  S
C838        C839   1.401       .  A
C838        H843   1.084       .  S
C839        C840   1.413       .  A
C840        N841   1.442       .  S
N841        O845   1.263       .  A
N841        O846   1.262       .  A
N844        O847   1.263       .  A
N844        O848   1.263       .  A
C849        C850   1.407       .  A
C849        C854   1.401       .  A
C849        H856   1.084       .  S
C850        C851   1.415       .  A
C851        C852   1.406       .  A
C851        N858   1.437       .  S
C852        C853   1.405       .  A
C852        H857   1.084       .  S
C853        C854   1.413       .  A
C854        N855   1.437       .  S
N855        O859   1.263       .  A
N855        O860   1.263       .  A
N858        O861   1.263       .  A
N858        O862   1.263       .  A
C863        C864   1.403       .  A
C863        C868   1.401       .  A
C863        H870   1.084   1_554  S
C864        C865   1.414       .  A
C865        C866   1.404       .  A
C865        N872   1.431       .  S
C866        C867   1.404       .  A
C866        H871   1.084       .  S
C867        C868   1.416       .  A
C868        N869   1.438       .  S
N869        O873   1.263       .  A
N869        O874   1.263       .  A
N872        O875   1.262       .  A
N872        O876   1.262       .  A
C877        C878   1.405       .  A
C877        C882   1.404       .  A
C877        H884   1.083       .  S
C878        C879   1.416       .  A
C879        C880   1.402       .  A
C879        N886   1.434       .  S
C880        C881   1.403       .  A
C880        H885   1.084       .  S
C881        C882   1.415       .  A
C882        N883   1.439       .  S
N883        O887   1.263       .  A
N883        O888   1.263       .  A
N886        O889   1.263       .  A
N886        O890   1.262       .  A
C891        C892   1.406       .  A
C891        C896   1.398   1_655  A
C891        H898   1.084       .  S
C892        C893   1.416       .  A
C893        C894   1.406       .  A
C893        N900   1.434       .  S
C894        C895   1.405   1_655  A
C894        H899   1.084       .  S
C895        C896   1.412       .  A
C896        N897   1.434       .  S
N897        O901   1.262       .  A
N897        O902   1.262       .  A
N900        O903   1.262       .  A
N900        O904   1.263       .  A
C905        C906   1.407       .  A
C905        C910   1.403       .  A
C905        H912   1.083       .  S
C906        C907   1.415       .  A
C907        C908   1.402       .  A
C907        N914   1.435       .  S
C908        C909   1.404       .  A
C908        H913   1.084       .  S
C909        C910   1.414       .  A
C910        N911   1.436       .  S
N911        O915   1.263       .  A
N911        O916   1.262       .  A
N914        O917   1.262       .  A
N914        O918   1.263       .  A
C919        C920   1.404       .  A
C919        C924   1.399       .  A
C919        H926   1.084   1_554  S
C920        C921   1.417       .  A
C921        C922   1.406       .  A
C921        N928   1.436       .  S
C922        C923   1.404       .  A
C922        H927   1.084       .  S
C923        C924   1.414       .  A
C924        N925   1.431       .  S
N925        O929   1.262       .  A
N925        O930   1.262       .  A
N928        O931   1.263       .  A
N928        O932   1.263       .  A
C933        C934   1.399       .  A
C933        C938   1.398       .  A
C933        H940   1.084       .  S
C934        C935   1.415       .  A
C935        C936   1.411       .  A
C935        N942   1.443       .  S
C936        C937   1.405       .  A
C936        H941   1.083       .  S
C937        C938   1.414       .  A
C938        N939   1.439       .  S
N939        O943   1.263       .  A
N939        O944   1.263       .  A
N942        O945   1.263       .  A
N942        O946   1.263       .  A
C947        C948   1.399       .  A
C947        C952   1.397       .  A
C947        H954   1.084       .  S
C948        C949   1.416       .  A
C949        C950   1.410       .  A
C949        N956   1.441       .  S
C950        C951   1.405       .  A
C950        H955   1.083       .  S
C951        C952   1.416       .  A
C952        N953   1.437       .  S
N953        O957   1.263       .  A
N953        O958   1.263       .  A
N956        O959   1.263       .  A
N956        O960   1.263       .  A
C961        C962   1.403       .  A
C961        C966   1.411   1_565  A
C961        H968   1.083       .  S
C962        C963   1.406       .  A
C963        C964   1.394   1_565  A
C963        N970   1.431       .  S
C964        C965   1.399       .  A
C964        H969   1.085       .  S
C965        C966   1.419       .  A
C966        N967   1.444       .  S
N967        O971   1.263       .  A
N967        O972   1.262       .  A
N970        O973   1.262       .  A
N970        O974   1.262       .  A
C975        C976   1.402       .  A
C975        C980   1.408       .  A
C975        H982   1.084       .  S
C976        C977   1.413       .  A
C977        C978   1.400       .  A
C977        N984   1.441       .  S
C978        C979   1.400       .  A
C978        H983   1.084       .  S
C979        C980   1.418       .  A
C980        N981   1.442       .  S
N981        O985   1.263       .  A
N981        O986   1.262       .  A
N984        O987   1.263       .  A
N984        O988   1.263       .  A
C989        C990   1.404       .  A
C989        C994   1.402       .  A
C989        H996   1.084       .  S
C990        C991   1.413       .  A
C991        C992   1.401       .  A
C991        N998   1.434       .  S
C992        C993   1.406       .  A
C992        H997   1.083       .  S
C993        C994   1.415       .  A
C994        N995   1.432       .  S
N995        O999   1.262       .  A
N995       O1000   1.262       .  A
N998       O1001   1.262       .  A
N998       O1002   1.262       .  A
C1003      C1004   1.406       .  A
C1003      C1008   1.403       .  A
C1003      H1010   1.084       .  S
C1004      C1005   1.416       .  A
C1005      C1006   1.401       .  A
C1005      N1012   1.437       .  S
C1006      C1007   1.405       .  A
C1006      H1011   1.083       .  S
C1007      C1008   1.413       .  A
C1008      N1009   1.431       .  S
N1009      O1013   1.262       .  A
N1009      O1014   1.262       .  A
N1012      O1015   1.262       .  A
N1012      O1016   1.262       .  A
C1017      C1018   1.405       .  A
C1017      C1022   1.409       .  A
C1017      H1024   1.084       .  S
C1018      C1019   1.419       .  A
C1019      C1020   1.401       .  A
C1019      N1026   1.445       .  S
C1020      C1021   1.397       .  A
C1020      H1025   1.084       .  S
C1021      C1022   1.416       .  A
C1022      N1023   1.444       .  S
N1023      O1027   1.263       .  A
N1023      O1028   1.262       .  A
N1026      O1029   1.261       .  A
N1026      O1030   1.263       .  A
C1031      C1032   1.407       .  A
C1031      C1036   1.405       .  A
C1031      H1038   1.083       .  S
C1032      C1033   1.415       .  A
C1033      C1034   1.402       .  A
C1033      N1040   1.436       .  S
C1034      C1035   1.404       .  A
C1034      H1039   1.084       .  S
C1035      C1036   1.414       .  A
C1036      N1037   1.437       .  S
N1037      O1041   1.263       .  A
N1037      O1042   1.262       .  A
N1040      O1043   1.263       .  A
N1040      O1044   1.263       .  A
C1045      C1046   1.405       .  A
C1045      C1050   1.399   1_655  A
C1045      H1052   1.084       .  S
C1046      C1047   1.417   1_655  A
C1047      C1048   1.406       .  A
C1047      N1054   1.435       .  S
C1048      C1049   1.404       .  A
C1048      H1053   1.084       .  S
C1049      C1050   1.412       .  A
C1050      N1051   1.431       .  S
N1051      O1055   1.262       .  A
N1051      O1056   1.262       .  A
N1054      O1057   1.263   1_455  A
N1054      O1058   1.262       .  A
C1059      C1060   1.404       .  A
C1059      C1064   1.401       .  A
C1059      H1066   1.084       .  S
C1060      C1061   1.415       .  A
C1061      C1062   1.407       .  A
C1061      N1068   1.434       .  S
C1062      C1063   1.403       .  A
C1062      H1067   1.084       .  S
C1063      C1064   1.413       .  A
C1064      N1065   1.440       .  S
N1065      O1069   1.263       .  A
N1065      O1070   1.262       .  A
N1068      O1071   1.262       .  A
N1068      O1072   1.263       .  A
C1073      C1074   1.406       .  A
C1073      C1078   1.401       .  A
C1073      H1080   1.084       .  S
C1074      C1075   1.415       .  A
C1075      C1076   1.402       .  A
C1075      N1082   1.434       .  S
C1076      C1077   1.404       .  A
C1076      H1081   1.084       .  S
C1077      C1078   1.414       .  A
C1078      N1079   1.435       .  S
N1079      O1083   1.263       .  A
N1079      O1084   1.263       .  A
N1082      O1085   1.262       .  A
N1082      O1086   1.263       .  A
C1087      C1088   1.402       .  A
C1087      C1092   1.401       .  A
C1087      H1094   1.084       .  S
C1088      C1089   1.414       .  A
C1089      C1090   1.404       .  A
C1089      N1096   1.431       .  S
C1090      C1091   1.405       .  A
C1090      H1095   1.084       .  S
C1091      C1092   1.417       .  A
C1092      N1093   1.436       .  S
N1093      O1097   1.263       .  A
N1093      O1098   1.263       .  A
N1096      O1099   1.262       .  A
N1096      O1100   1.262       .  A
C1101      C1102   1.403       .  A
C1101      C1106   1.411       .  A
C1101      H1108   1.083       .  S
C1102      C1103   1.409       .  A
C1103      C1104   1.396       .  A
C1103      N1110   1.437       .  S
C1104      C1105   1.400       .  A
C1104      H1109   1.085       .  S
C1105      C1106   1.419       .  A
C1106      N1107   1.443       .  S
N1107      O1111   1.263       .  A
N1107      O1112   1.262       .  A
N1110      O1113   1.260       .  A
N1110      O1114   1.262       .  A
C1115      C1116   1.403       .  A
C1115      C1120   1.401       .  A
C1115      H1122   1.084       .  S
C1116      C1117   1.415       .  A
C1117      C1118   1.404       .  A
C1117      N1124   1.436       .  S
C1118      C1119   1.405       .  A
C1118      H1123   1.083       .  S
C1119      C1120   1.416       .  A
C1120      N1121   1.436       .  S
N1121      O1125   1.263       .  A
N1121      O1126   1.263       .  A
N1124      O1127   1.262       .  A
N1124      O1128   1.263       .  A
C1129      C1130   1.401       .  A
C1129      C1134   1.399       .  A
C1129      H1136   1.084       .  S
C1130      C1131   1.416       .  A
C1131      C1132   1.409       .  A
C1131      N1138   1.439       .  S
C1132      C1133   1.406       .  A
C1132      H1137   1.083       .  S
C1133      C1134   1.416       .  A
C1134      N1135   1.436       .  S
N1135      O1139   1.262       .  A
N1135      O1140   1.263       .  A
N1138      O1141   1.263       .  A
N1138      O1142   1.263       .  A
C1143      C1144   1.400       .  A
C1143      C1148   1.398       .  A
C1143      H1150   1.084       .  S
C1144      C1145   1.415       .  A
C1145      C1146   1.409       .  A
C1145      N1152   1.440       .  S
C1146      C1147   1.405       .  A
C1146      H1151   1.083       .  S
C1147      C1148   1.416       .  A
C1148      N1149   1.437       .  S
N1149      O1153   1.263       .  A
N1149      O1154   1.263       .  A
N1152      O1155   1.263       .  A
N1152      O1156   1.263       .  A
C1157      C1158   1.401       .  A
C1157      C1162   1.399       .  A
C1157      H1164   1.085       .  S
C1158      C1159   1.420       .  A
C1159      C1160   1.410       .  A
C1159      N1166   1.449       .  S
C1160      C1161   1.405       .  A
C1160      H1165   1.083       .  S
C1161      C1162   1.411       .  A
C1162      N1163   1.432       .  S
N1163      O1167   1.262       .  A
N1163      O1168   1.262       .  A
N1166      O1169   1.262       .  A
N1166      O1170   1.263       .  A
C1171      C1172   1.405       .  A
C1171      C1176   1.401       .  A
C1171      H1178   1.084       .  S
C1172      C1173   1.416       .  A
C1173      C1174   1.407       .  A
C1173      N1180   1.438       .  S
C1174      C1175   1.403       .  A
C1174      H1179   1.084       .  S
C1175      C1176   1.413       .  A
C1176      N1177   1.439   1_565  S
N1177      O1181   1.263       .  A
N1177      O1182   1.263       .  A
N1180      O1183   1.263       .  A
N1180      O1184   1.263       .  A
C1185      C1186   1.405       .  A
C1185      C1190   1.405   1_565  A
C1185      H1192   1.083       .  S
C1186      C1187   1.414       .  A
C1187      C1188   1.400   1_565  A
C1187      N1194   1.436       .  S
C1188      C1189   1.405       .  A
C1188      H1193   1.083       .  S
C1189      C1190   1.416       .  A
C1190      N1191   1.434       .  S
N1191      O1195   1.263       .  A
N1191      O1196   1.262       .  A
N1194      O1197   1.263       .  A
N1194      O1198   1.263       .  A
C1199      C1200   1.401       .  A
C1199      C1204   1.397       .  A
C1199      H1206   1.084       .  S
C1200      C1201   1.415       .  A
C1201      C1202   1.408       .  A
C1201      N1208   1.438       .  S
C1202      C1203   1.406       .  A
C1202      H1207   1.083       .  S
C1203      C1204   1.417       .  A
C1204      N1205   1.433       .  S
N1205      O1209   1.262       .  A
N1205      O1210   1.262       .  A
N1208      O1211   1.263       .  A
N1208      O1212   1.263       .  A
C1213      C1214   1.403       .  A
C1213      C1218   1.404       .  A
C1213      H1220   1.084       .  S
C1214      C1215   1.411       .  A
C1215      C1216   1.399       .  A
C1215      N1222   1.431       .  S
C1216      C1217   1.405       .  A
C1216      H1221   1.084       .  S
C1217      C1218   1.417       .  A
C1218      N1219   1.435       .  S
N1219      O1223   1.262       .  A
N1219      O1224   1.263       .  A
N1222      O1225   1.262       .  A
N1222      O1226   1.262       .  A
C1227      C1228   1.401       .  A
C1227      C1232   1.398       .  A
C1227      H1234   1.085       .  S
C1228      C1229   1.422       .  A
C1229      C1230   1.411       .  A
C1229      N1236   1.450       .  S
C1230      C1231   1.405       .  A
C1230      H1235   1.083       .  S
C1231      C1232   1.411       .  A
C1232      N1233   1.432       .  S
N1233      O1237   1.262       .  A
N1233      O1238   1.262       .  A
N1236      O1239   1.262       .  A
N1236      O1240   1.263       .  A
C1241      C1242   1.406       .  A
C1241      C1246   1.405       .  A
C1241      H1248   1.083       .  S
C1242      C1243   1.416       .  A
C1243      C1244   1.401       .  A
C1243      N1250   1.435       .  S
C1244      C1245   1.404       .  A
C1244      H1249   1.084       .  S
C1245      C1246   1.415       .  A
C1246      N1247   1.435       .  S
N1247      O1251   1.263       .  A
N1247      O1252   1.262       .  A
N1250      O1253   1.262       .  A
N1250      O1254   1.262       .  A
C1255      C1256   1.401       .  A
C1255      C1260   1.406       .  A
C1255      H1262   1.084       .  S
C1256      C1257   1.412       .  A
C1257      C1258   1.401       .  A
C1257      N1264   1.440       .  S
C1258      C1259   1.402       .  A
C1258      H1263   1.084       .  S
C1259      C1260   1.416       .  A
C1260      N1261   1.441       .  S
N1261      O1265   1.263       .  A
N1261      O1266   1.263   1_554  A
N1264      O1267   1.262       .  A
N1264      O1268   1.263       .  A
C1269      C1270   1.401       .  A
C1269      C1274   1.400       .  A
C1269      H1276   1.084       .  S
C1270      C1271   1.412       .  A
C1271      C1272   1.404       .  A
C1271      N1278   1.432       .  S
C1272      C1273   1.406       .  A
C1272      H1277   1.083       .  S
C1273      C1274   1.418       .  A
C1274      N1275   1.435       .  S
N1275      O1279   1.263       .  A
N1275      O1280   1.263       .  A
N1278      O1281   1.262       .  A
N1278      O1282   1.262       .  A
C1283      C1284   1.402       .  A
C1283      C1288   1.398       .  A
C1283      H1290   1.084       .  S
C1284      C1285   1.416       .  A
C1285      C1286   1.406       .  A
C1285      N1292   1.438       .  S
C1286      C1287   1.405       .  A
C1286      H1291   1.083       .  S
C1287      C1288   1.414       .  A
C1288      N1289   1.431       .  S
N1289      O1293   1.262       .  A
N1289      O1294   1.262       .  A
N1292      O1295   1.263       .  A
N1292      O1296   1.263       .  A
C1297      C1298   1.405       .  A
C1297      C1302   1.397       .  A
C1297      H1304   1.084       .  S
C1298      C1299   1.416       .  A
C1299      C1300   1.407       .  A
C1299      N1306   1.433       .  S
C1300      C1301   1.403       .  A
C1300      H1305   1.084       .  S
C1301      C1302   1.411       .  A
C1302      N1303   1.435       .  S
N1303      O1307   1.262       .  A
N1303      O1308   1.261       .  A
N1306      O1309   1.262       .  A
N1306      O1310   1.262       .  A
C1311      C1312   1.405       .  A
C1311      C1316   1.404       .  A
C1311      H1318   1.084       .  S
C1312      C1313   1.414       .  A
C1313      C1314   1.402       .  A
C1313      N1320   1.432       .  S
C1314      C1315   1.403       .  A
C1314      H1319   1.084       .  S
C1315      C1316   1.414       .  A
C1316      N1317   1.439       .  S
N1317      O1321   1.263       .  A
N1317      O1322   1.261       .  A
N1320      O1323   1.262       .  A
N1320      O1324   1.262       .  A
C1325      C1326   1.405       .  A
C1325      C1330   1.403       .  A
C1325      H1332   1.083       .  S
C1326      C1327   1.415       .  A
C1327      C1328   1.401       .  A
C1327      N1334   1.432       .  S
C1328      C1329   1.402       .  A
C1328      H1333   1.084       .  S
C1329      C1330   1.413       .  A
C1330      N1331   1.438       .  S
N1331      O1335   1.263       .  A
N1331      O1336   1.262       .  A
N1334      O1337   1.262       .  A
N1334      O1338   1.262       .  A
C1339      C1340   1.405       .  A
C1339      C1344   1.401       .  A
C1339      H1346   1.084       .  S
C1340      C1341   1.414       .  A
C1341      C1342   1.404       .  A
C1341      N1348   1.433       .  S
C1342      C1343   1.406       .  A
C1342      H1347   1.083       .  S
C1343      C1344   1.415       .  A
C1344      N1345   1.433       .  S
N1345      O1349   1.262       .  A
N1345      O1350   1.262       .  A
N1348      O1351   1.262       .  A
N1348      O1352   1.262       .  A
C1353      C1354   1.404       .  A
C1353      C1358   1.401       .  A
C1353      H1360   1.083       .  S
C1354      C1355   1.415       .  A
C1355      C1356   1.404       .  A
C1355      N1362   1.431       .  S
C1356      C1357   1.404       .  A
C1356      H1361   1.084       .  S
C1357      C1358   1.416       .  A
C1358      N1359   1.437       .  S
N1359      O1363   1.263       .  A
N1359      O1364   1.263       .  A
N1362      O1365   1.262       .  A
N1362      O1366   1.262       .  A
C1367      C1368   1.403       .  A
C1367      C1372   1.403       .  A
C1367      H1374   1.083       .  S
C1368      C1369   1.415       .  A
C1369      C1370   1.402       .  A
C1369      N1376   1.437       .  S
C1370      C1371   1.401       .  A
C1370      H1375   1.084       .  S
C1371      C1372   1.414       .  A
C1372      N1373   1.441       .  S
N1373      O1377   1.263       .  A
N1373      O1378   1.263       .  A
N1376      O1379   1.263       .  A
N1376      O1380   1.262       .  A
C1381      C1382   1.405       .  A
C1381      C1386   1.401       .  A
C1381      H1388   1.084       .  S
C1382      C1383   1.414       .  A
C1383      C1384   1.403       .  A
C1383      N1390   1.435       .  S
C1384      C1385   1.406       .  A
C1384      H1389   1.083       .  S
C1385      C1386   1.415       .  A
C1386      N1387   1.435   1_565  S
N1387      O1391   1.263       .  A
N1387      O1392   1.263       .  A
N1390      O1393   1.262       .  A
N1390      O1394   1.263       .  A
C1395      C1396   1.406       .  A
C1395      C1400   1.406       .  A
C1395      H1402   1.084       .  S
C1396      C1397   1.415       .  A
C1397      C1398   1.400       .  A
C1397      N1404   1.433       .  S
C1398      C1399   1.403       .  A
C1398      H1403   1.084       .  S
C1399      C1400   1.415       .  A
C1400      N1401   1.436       .  S
N1401      O1405   1.263       .  A
N1401      O1406   1.262       .  A
N1404      O1407   1.262       .  A
N1404      O1408   1.262       .  A
C1409      C1410   1.401       .  A
C1409      C1414   1.403       .  A
C1409      H1416   1.084       .  S
C1410      C1411   1.411       .  A
C1411      C1412   1.401       .  A
C1411      N1418   1.436       .  S
C1412      C1413   1.403       .  A
C1412      H1417   1.084       .  S
C1413      C1414   1.416       .  A
C1414      N1415   1.437       .  S
N1415      O1419   1.262       .  A
N1415      O1420   1.263       .  A
N1418      O1421   1.262       .  A
N1418      O1422   1.263       .  A
C1423      C1424   1.406       .  A
C1423      C1428   1.402       .  A
C1423      H1430   1.084       .  S
C1424      C1425   1.416       .  A
C1425      C1426   1.402       .  A
C1425      N1432   1.433       .  S
C1426      C1427   1.404       .  A
C1426      H1431   1.084       .  S
C1427      C1428   1.412       .  A
C1428      N1429   1.434       .  S
N1429      O1433   1.263       .  A
N1429      O1434   1.262       .  A
N1432      O1435   1.262       .  A
N1432      O1436   1.262       .  A
C1437      C1438   1.406       .  A
C1437      C1442   1.400       .  A
C1437      H1444   1.083       .  S
C1438      C1439   1.417       .  A
C1439      C1440   1.407       .  A
C1439      N1446   1.437       .  S
C1440      C1441   1.403       .  A
C1440      H1445   1.084       .  S
C1441      C1442   1.412       .  A
C1442      N1443   1.439       .  S
N1443      O1447   1.263       .  A
N1443      O1448   1.263       .  A
N1446      O1449   1.263       .  A
N1446      O1450   1.263       .  A
C1451      C1452   1.401       .  A
C1451      C1456   1.404       .  A
C1451      H1458   1.084       .  S
C1452      C1453   1.414       .  A
C1453      C1454   1.403       .  A
C1453      N1460   1.441       .  S
C1454      C1455   1.401       .  A
C1454      H1459   1.084       .  S
C1455      C1456   1.413       .  A
C1456      N1457   1.433       .  S
N1457      O1461   1.262       .  A
N1457      O1462   1.261       .  A
N1460      O1463   1.262       .  A
N1460      O1464   1.263       .  A
C1465      C1466   1.404       .  A
C1465      C1470   1.398   1_455  A
C1465      H1472   1.084       .  S
C1466      C1467   1.417   1_455  A
C1467      C1468   1.404       .  A
C1467      N1474   1.434       .  S
C1468      C1469   1.403       .  A
C1468      H1473   1.084       .  S
C1469      C1470   1.414       .  A
C1470      N1471   1.431       .  S
N1471      O1475   1.262       .  A
N1471      O1476   1.262       .  A
N1474      O1477   1.262       .  A
N1474      O1478   1.262       .  A
C1479      C1480   1.399       .  A
C1479      C1484   1.398       .  A
C1479      H1486   1.084       .  S
C1480      C1481   1.414       .  A
C1481      C1482   1.408       .  A
C1481      N1488   1.440       .  S
C1482      C1483   1.406       .  A
C1482      H1487   1.083       .  S
C1483      C1484   1.421       .  A
C1484      N1485   1.438       .  S
N1485      O1489   1.262       .  A
N1485      O1490   1.261       .  A
N1488      O1491   1.263       .  A
N1488      O1492   1.262       .  A
C1493      C1494   1.406       .  A
C1493      C1498   1.405       .  A
C1493      H1500   1.084       .  S
C1494      C1495   1.415       .  A
C1495      C1496   1.400       .  A
C1495      N1502   1.437       .  S
C1496      C1497   1.404       .  A
C1496      H1501   1.084       .  S
C1497      C1498   1.414       .  A
C1498      N1499   1.436       .  S
N1499      O1503   1.263       .  A
N1499      O1504   1.262       .  A
N1502      O1505   1.263       .  A
N1502      O1506   1.263       .  A
C1507      C1508   1.406       .  A
C1507      C1512   1.407       .  A
C1507      H1514   1.083       .  S
C1508      C1509   1.417       .  A
C1509      C1510   1.399       .  A
C1509      N1516   1.434       .  S
C1510      C1511   1.400       .  A
C1510      H1515   1.084   1_565  S
C1511      C1512   1.414       .  A
C1512      N1513   1.440       .  S
N1513      O1517   1.263       .  A
N1513      O1518   1.263       .  A
N1516      O1519   1.263       .  A
N1516      O1520   1.262       .  A
C1521      C1522   1.405       .  A
C1521      C1526   1.400       .  A
C1521      H1528   1.084       .  S
C1522      C1523   1.418       .  A
C1523      C1524   1.405       .  A
C1523      N1530   1.435       .  S
C1524      C1525   1.403       .  A
C1524      H1529   1.084       .  S
C1525      C1526   1.413       .  A
C1526      N1527   1.431       .  S
N1527      O1531   1.262       .  A
N1527      O1532   1.262       .  A
N1530      O1533   1.263       .  A
N1530      O1534   1.262       .  A
C1535      C1536   1.405       .  A
C1535      C1540   1.411       .  A
C1535      H1542   1.083       .  S
C1536      C1537   1.408       .  A
C1537      C1538   1.396       .  A
C1537      N1544   1.432       .  S
C1538      C1539   1.400       .  A
C1538      H1543   1.081       .  S
C1539      C1540   1.419       .  A
C1540      N1541   1.447       .  S
N1541      O1545   1.263       .  A
N1541      O1546   1.262       .  A
N1544      O1547   1.262       .  A
N1544      O1548   1.262       .  A
C1549      C1550   1.405       .  A
C1549      C1554   1.408       .  A
C1549      H1556   1.083       .  S
C1550      C1551   1.415       .  A
C1551      C1552   1.397       .  A
C1551      N1558   1.431       .  S
C1552      C1553   1.402       .  A
C1552      H1557   1.084       .  S
C1553      C1554   1.417       .  A
C1554      N1555   1.437       .  S
N1555      O1559   1.263       .  A
N1555      O1560   1.263       .  A
N1558      O1561   1.262       .  A
N1558      O1562   1.262       .  A
C1563      C1564   1.404       .  A
C1563      C1568   1.406       .  A
C1563      H1570   1.084       .  S
C1564      C1565   1.415       .  A
C1565      C1566   1.403       .  A
C1565      N1572   1.438       .  S
C1566      C1567   1.402       .  A
C1566      H1571   1.084       .  S
C1567      C1568   1.415       .  A
C1568      N1569   1.439       .  S
N1569      O1573   1.263       .  A
N1569      O1574   1.263       .  A
N1572      O1575   1.262       .  A
N1572      O1576   1.263       .  A
C1577      C1578   1.400       .  A
C1577      C1582   1.402   1_545  A
C1577      H1584   1.084       .  S
C1578      C1579   1.414       .  A
C1579      C1580   1.406   1_545  A
C1579      N1586   1.440       .  S
C1580      C1581   1.404       .  A
C1580      H1585   1.083       .  S
C1581      C1582   1.415       .  A
C1582      N1583   1.437       .  S
N1583      O1587   1.262   1_565  A
N1583      O1588   1.263       .  A
N1586      O1589   1.263       .  A
N1586      O1590   1.263       .  A
C1591      C1592   1.401       .  A
C1591      C1596   1.403       .  A
C1591      H1598   1.084       .  S
C1592      C1593   1.414       .  A
C1593      C1594   1.405       .  A
C1593      N1600   1.440       .  S
C1594      C1595   1.403       .  A
C1594      H1599   1.083       .  S
C1595      C1596   1.415       .  A
C1596      N1597   1.438       .  S
N1597      O1601   1.262       .  A
N1597      O1602   1.263       .  A
N1600      O1603   1.263       .  A
N1600      O1604   1.263       .  A
C1605      C1606   1.403       .  A
C1605      C1610   1.410       .  A
C1605      H1612   1.084       .  S
C1606      C1607   1.412       .  A
C1607      C1608   1.400       .  A
C1607      N1614   1.442       .  S
C1608      C1609   1.402       .  A
C1608      H1613   1.084       .  S
C1609      C1610   1.417       .  A
C1610      N1611   1.441       .  S
N1611      O1615   1.263       .  A
N1611      O1616   1.263       .  A
N1614      O1617   1.262       .  A
N1614      O1618   1.263       .  A
C1619      C1620   1.400       .  A
C1619      C1624   1.397       .  A
C1619      H1626   1.084   1_565  S
C1620      C1621   1.415       .  A
C1621      C1622   1.408       .  A
C1621      N1628   1.440       .  S
C1622      C1623   1.405       .  A
C1622      H1627   1.083       .  S
C1623      C1624   1.416       .  A
C1624      N1625   1.436       .  S
N1625      O1629   1.262       .  A
N1625      O1630   1.263       .  A
N1628      O1631   1.263       .  A
N1628      O1632   1.263       .  A
C1633      C1634   1.405       .  A
C1633      C1638   1.406       .  A
C1633      H1640   1.083       .  S
C1634      C1635   1.416       .  A
C1635      C1636   1.402       .  A
C1635      N1642   1.436       .  S
C1636      C1637   1.402       .  A
C1636      H1641   1.084       .  S
C1637      C1638   1.416       .  A
C1638      N1639   1.438       .  S
N1639      O1643   1.263       .  A
N1639      O1644   1.262       .  A
N1642      O1645   1.262       .  A
N1642      O1646   1.263       .  A
C1647      C1648   1.400       .  A
C1647      C1652   1.402   1_556  A
C1647      H1654   1.084       .  S
C1648      C1649   1.415       .  A
C1649      C1650   1.407   1_556  A
C1649      N1656   1.445       .  S
C1650      C1651   1.404       .  A
C1650      H1655   1.084       .  S
C1651      C1652   1.415       .  A
C1652      N1653   1.442       .  S
N1653      O1657   1.263       .  A
N1653      O1658   1.261       .  A
N1656      O1659   1.262       .  A
N1656      O1660   1.263       .  A
C1661      C1662   1.406       .  A
C1661      C1666   1.398   1_556  A
C1661      H1668   1.084       .  S
C1662      C1663   1.416       .  A
C1663      C1664   1.404   1_556  A
C1663      N1670   1.433       .  S
C1664      C1665   1.404       .  A
C1664      H1669   1.084       .  S
C1665      C1666   1.411       .  A
C1666      N1667   1.433       .  S
N1667      O1671   1.262       .  A
N1667      O1672   1.262       .  A
N1670      O1673   1.262       .  A
N1670      O1674   1.263       .  A
C1675      C1676   1.405       .  A
C1675      C1680   1.410       .  A
C1675      H1682   1.083       .  S
C1676      C1677   1.412       .  A
C1677      C1678   1.398       .  A
C1677      N1684   1.432       .  S
C1678      C1679   1.401       .  A
C1678      H1683   1.085       .  S
C1679      C1680   1.419       .  A
C1680      N1681   1.446       .  S
N1681      O1685   1.263       .  A
N1681      O1686   1.263       .  A
N1684      O1687   1.262       .  A
N1684      O1688   1.262       .  A
C1689      C1690   1.402       .  A
C1689      C1694   1.400       .  A
C1689      H1696   1.084       .  S
C1690      C1691   1.413       .  A
C1691      C1692   1.403       .  A
C1691      N1698   1.434       .  S
C1692      C1693   1.405       .  A
C1692      H1697   1.084       .  S
C1693      C1694   1.417       .  A
C1694      N1695   1.433       .  S
N1695      O1699   1.262       .  A
N1695      O1700   1.262       .  A
N1698      O1701   1.262       .  A
N1698      O1702   1.262       .  A
C1703      C1704   1.407       .  A
C1703      C1708   1.410       .  A
C1703      H1710   1.083       .  S
C1704      C1705   1.418       .  A
C1705      C1706   1.396       .  A
C1705      N1712   1.433       .  S
C1706      C1707   1.397       .  A
C1706      H1711   1.085       .  S
C1707      C1708   1.415       .  A
C1708      N1709   1.441       .  S
N1709      O1713   1.263       .  A
N1709      O1714   1.262       .  A
N1712      O1715   1.262       .  A
N1712      O1716   1.262       .  A
C1717      C1718   1.405       .  A
C1717      C1722   1.407   1_554  A
C1717      H1724   1.084       .  S
C1718      C1719   1.411       .  A
C1719      C1720   1.396   1_554  A
C1719      N1726   1.433       .  S
C1720      C1721   1.406       .  A
C1720      H1725   1.084       .  S
C1721      C1722   1.417       .  A
C1722      N1723   1.434       .  S
N1723      O1727   1.263       .  A
N1723      O1728   1.262       .  A
N1726      O1729   1.262       .  A
N1726      O1730   1.262       .  A
C1731      C1732   1.403       .  A
C1731      C1736   1.402       .  A
C1731      H1738   1.084       .  S
C1732      C1733   1.414       .  A
C1733      C1734   1.404       .  A
C1733      N1740   1.436       .  S
C1734      C1735   1.405       .  A
C1734      H1739   1.084       .  S
C1735      C1736   1.416       .  A
C1736      N1737   1.436       .  S
N1737      O1741   1.263       .  A
N1737      O1742   1.263       .  A
N1740      O1743   1.262       .  A
N1740      O1744   1.263       .  A
C1745      C1746   1.403       .  A
C1745      C1750   1.399   1_455  A
C1745      H1752   1.083       .  S
C1746      C1747   1.415   1_455  A
C1747      C1748   1.404       .  A
C1747      N1754   1.431       .  S
C1748      C1749   1.404       .  A
C1748      H1753   1.083       .  S
C1749      C1750   1.416       .  A
C1750      N1751   1.437       .  S
N1751      O1755   1.263       .  A
N1751      O1756   1.263       .  A
N1754      O1757   1.262       .  A
N1754      O1758   1.262       .  A
C1759      C1760   1.402       .  A
C1759      C1764   1.400       .  A
C1759      H1766   1.085       .  S
C1760      C1761   1.417       .  A
C1761      C1762   1.409       .  A
C1761      N1768   1.441       .  S
C1762      C1763   1.403       .  A
C1762      H1767   1.084       .  S
C1763      C1764   1.412       .  A
C1764      N1765   1.440       .  S
N1765      O1769   1.263       .  A
N1765      O1770   1.263       .  A
N1768      O1771   1.262       .  A
N1768      O1772   1.263       .  A
C1773      C1774   1.402       .  A
C1773      C1778   1.402       .  A
C1773      H1780   1.084       .  S
C1774      C1775   1.416       .  A
C1775      C1776   1.409       .  A
C1775      N1782   1.443       .  S
C1776      C1777   1.404       .  A
C1776      H1781   1.083       .  S
C1777      C1778   1.413       .  A
C1778      N1779   1.440       .  S
N1779      O1783   1.263       .  A
N1779      O1784   1.263       .  A
N1782      O1785   1.262       .  A
N1782      O1786   1.263       .  A
C1787      C1788   1.406       .  A
C1787      C1792   1.404       .  A
C1787      H1794   1.083       .  S
C1788      C1789   1.412       .  A
C1789      C1790   1.398       .  A
C1789      N1796   1.433       .  S
C1790      C1791   1.406       .  A
C1790      H1795   1.084       .  S
C1791      C1792   1.415       .  A
C1792      N1793   1.434       .  S
N1793      O1797   1.263       .  A
N1793      O1798   1.262       .  A
N1796      O1799   1.262       .  A
N1796      O1800   1.262       .  A
C1801      C1802   1.399       .  A
C1801      C1806   1.393   1_455  A
C1801      H1808   1.084       .  S
C1802      C1803   1.420   1_455  A
C1803      C1804   1.410       .  A
C1803      N1810   1.444       .  S
C1804      C1805   1.404       .  A
C1804      H1809   1.083       .  S
C1805      C1806   1.410       .  A
C1806      N1807   1.431       .  S
N1807      O1811   1.262       .  A
N1807      O1812   1.262       .  A
N1810      O1813   1.261   1_655  A
N1810      O1814   1.263       .  A
C1815      C1816   1.406       .  A
C1815      C1820   1.396   1_556  A
C1815      H1822   1.084       .  S
C1816      C1817   1.416       .  A
C1817      C1818   1.407       .  A
C1817      N1824   1.433       .  S
C1818      C1819   1.404   1_556  A
C1818      H1823   1.084   1_556  S
C1819      C1820   1.409       .  A
C1820      N1821   1.434       .  S
N1821      O1825   1.262       .  A
N1821      O1826   1.262       .  A
N1824      O1827   1.262       .  A
N1824      O1828   1.262       .  A
C1829      C1830   1.399       .  A
C1829      C1834   1.398       .  A
C1829      H1836   1.084       .  S
C1830      C1831   1.415       .  A
C1831      C1832   1.408       .  A
C1831      N1838   1.440       .  S
C1832      C1833   1.405       .  A
C1832      H1837   1.083       .  S
C1833      C1834   1.416       .  A
C1834      N1835   1.437       .  S
N1835      O1839   1.263       .  A
N1835      O1840   1.262       .  A
N1838      O1841   1.263       .  A
N1838      O1842   1.263       .  A
C1843      C1844   1.406       .  A
C1843      C1848   1.399       .  A
C1843      H1850   1.084       .  S
C1844      C1845   1.416       .  A
C1845      C1846   1.406       .  A
C1845      N1852   1.435       .  S
C1846      C1847   1.405       .  A
C1846      H1851   1.084       .  S
C1847      C1848   1.413       .  A
C1848      N1849   1.436       .  S
N1849      O1853   1.263       .  A
N1849      O1854   1.263       .  A
N1852      O1855   1.262       .  A
N1852      O1856   1.263       .  A
C1857      C1858   1.403   1_455  A
C1857      C1862   1.404       .  A
C1857      H1864   1.084       .  S
C1858      C1859   1.410       .  A
C1859      C1860   1.397   1_655  A
C1859      N1866   1.434       .  S
C1860      C1861   1.406       .  A
C1860      H1865   1.084       .  S
C1861      C1862   1.415       .  A
C1862      N1863   1.432       .  S
N1863      O1867   1.262       .  A
N1863      O1868   1.262       .  A
N1866      O1869   1.262       .  A
N1866      O1870   1.262       .  A
C1871      C1872   1.404       .  A
C1871      C1876   1.404       .  A
C1871      H1878   1.084       .  S
C1872      C1873   1.413       .  A
C1873      C1874   1.398       .  A
C1873      N1880   1.430       .  S
C1874      C1875   1.403       .  A
C1874      H1879   1.084       .  S
C1875      C1876   1.417       .  A
C1876      N1877   1.434       .  S
N1877      O1881   1.262       .  A
N1877      O1882   1.263       .  A
N1880      O1883   1.262       .  A
N1880      O1884   1.262       .  A
C1885      C1886   1.402       .  A
C1885      C1890   1.402       .  A
C1885      H1892   1.084       .  S
C1886      C1887   1.415       .  A
C1887      C1888   1.403       .  A
C1887      N1894   1.438       .  S
C1888      C1889   1.404       .  A
C1888      H1893   1.083       .  S
C1889      C1890   1.417       .  A
C1890      N1891   1.433       .  S
N1891      O1895   1.262       .  A
N1891      O1896   1.262       .  A
N1894      O1897   1.263       .  A
N1894      O1898   1.263       .  A
C1899      C1900   1.402       .  A
C1899      C1904   1.401       .  A
C1899      H1906   1.083       .  S
C1900      C1901   1.413       .  A
C1901      C1902   1.403       .  A
C1901      N1908   1.430       .  S
C1902      C1903   1.404       .  A
C1902      H1907   1.084       .  S
C1903      C1904   1.417       .  A
C1904      N1905   1.437       .  S
N1905      O1909   1.263       .  A
N1905      O1910   1.263       .  A
N1908      O1911   1.262       .  A
N1908      O1912   1.262       .  A
C1913      C1914   1.402       .  A
C1913      C1918   1.407       .  A
C1913      H1920   1.084       .  S
C1914      C1915   1.411       .  A
C1915      C1916   1.400       .  A
C1915      N1922   1.442       .  S
C1916      C1917   1.403       .  A
C1916      H1921   1.084       .  S
C1917      C1918   1.416       .  A
C1918      N1919   1.437       .  S
N1919      O1923   1.263       .  A
N1919      O1924   1.262       .  A
N1922      O1925   1.262       .  A
N1922      O1926   1.263       .  A
C1927      C1928   1.406       .  A
C1927      C1932   1.406       .  A
C1927      H1934   1.083       .  S
C1928      C1929   1.414       .  A
C1929      C1930   1.400       .  A
C1929      N1936   1.434   1_554  S
C1930      C1931   1.404       .  A
C1930      H1935   1.084       .  S
C1931      C1932   1.415       .  A
C1932      N1933   1.436       .  S
N1933      O1937   1.263       .  A
N1933      O1938   1.262       .  A
N1936      O1939   1.262       .  A
N1936      O1940   1.262       .  A
C1941      C1942   1.402       .  A
C1941      C1946   1.404       .  A
C1941      H1948   1.084       .  S
C1942      C1943   1.415       .  A
C1943      C1944   1.402   1_455  A
C1943      N1950   1.439       .  S
C1944      C1945   1.404       .  A
C1944      H1949   1.083       .  S
C1945      C1946   1.416   1_655  A
C1946      N1947   1.435       .  S
N1947      O1951   1.262       .  A
N1947      O1952   1.263   1_455  A
N1950      O1953   1.263       .  A
N1950      O1954   1.263       .  A
C1955      C1956   1.405       .  A
C1955      C1960   1.400       .  A
C1955      H1962   1.084       .  S
C1956      C1957   1.416       .  A
C1957      C1958   1.404       .  A
C1957      N1964   1.434       .  S
C1958      C1959   1.405       .  A
C1958      H1963   1.084       .  S
C1959      C1960   1.414       .  A
C1960      N1961   1.433       .  S
N1961      O1965   1.262       .  A
N1961      O1966   1.262       .  A
N1964      O1967   1.262       .  A
N1964      O1968   1.263       .  A
