geometry optimzed in LAMMPS
_audit_creation_date              2020-11-30 
_audit_creation_method            'lammps2cif' 
_symmetry_space_group_name_H-M    'P1' 
_symmetry_Int_Tables_number       1 
_symmetry_cell_setting            triclinic 
loop_ 
_symmetry_equiv_pos_as_xyz 
  x,y,z 
_cell_length_a                    32.31831864 
_cell_length_b                    32.62052459272252 
_cell_length_c                    27.610816430364665 
_cell_angle_alpha                 92.34444676298706 
_cell_angle_beta                  90.34529719045153 
_cell_angle_gamma                 89.55559466920535 
loop_ 
_atom_site_label 
_atom_site_type_symbol 
_atom_site_fract_x 
_atom_site_fract_y 
_atom_site_fract_z 
_atom_site_charge 
O1          O  0.54018087  0.05918352  0.50971360    -0.56900
C2          C  0.40566916  0.08362599  0.48219288     0.75700
O3          O  0.45241245  0.08484315  0.61044718    -0.58000
C4          C  0.56233733  0.08198949  0.48463004     0.75700
C5          C  0.48797832  0.18706517  0.59392269     0.78100
Cd6        Cd  0.48348369  0.11123328  0.53594092     1.37500
O7          O  0.43232341  0.06027039  0.50129257    -0.56900
O8          O  0.51828312  0.17521623  0.56783173    -0.55700
C9          C  0.48618388  0.08329316  0.63367538     0.78100
O10         O  0.45340411  0.17172309  0.58180809    -0.58100
O11         O  0.41548363  0.12136779  0.48580056    -0.56500
O12         O  0.54529586  0.11668202  0.47829284    -0.56500
O13         O  0.51812572  0.09168315  0.61019551    -0.55700
C14         C  0.84485745  0.26825919  0.58143658    -0.01600
C15         C  0.60652302  0.06837063  0.46394772    -0.01600
O16         O  0.91258830  0.22848604  0.59033985    -0.56900
C17         C  0.06874490  0.24026974  0.56809234     0.75700
O18         O  0.97867290  0.23821536  0.45114109    -0.58000
C19         C  0.88948965  0.25236515  0.56602759     0.75700
C20         C  0.98998968  0.31143094  0.59003571     0.78100
Cd21       Cd  0.97875699  0.23872444  0.53961197     1.37500
O22         O  0.04563935  0.21066948  0.58078980    -0.56900
O23         O  0.98048862  0.27817074  0.60943242    -0.55700
C24         C  0.97412589  0.19977076  0.44357266     0.78100
O25         O  0.99026856  0.31106401  0.54364713    -0.58100
O26         O  0.05025099  0.26480581  0.54078026    -0.56500
O27         O  0.90694468  0.26594419  0.52867797    -0.56500
O28         O  0.97369049  0.17862339  0.48142273    -0.55700
C29         C  0.11481789  0.24826032  0.58688042    -0.01600
C30         C  0.36560352  0.06569271  0.45585732    -0.01600
O31         O  0.44008306  0.73182840  0.59153854    -0.56900
C32         C  0.59954669  0.74968445  0.57294430     0.75700
O33         O  0.50686626  0.76026094  0.45801877    -0.58000
C34         C  0.41505491  0.75065420  0.56356063     0.75700
C35         C  0.51146427  0.83090178  0.58174904     0.78100
Cd36       Cd  0.50766656  0.75068056  0.54395332     1.37500
O37         O  0.58522746  0.72134870  0.54452409    -0.56900
O38         O  0.51388294  0.82540719  0.53574128    -0.55700
C39         C  0.50736661  0.72217216  0.44580332     0.78100
O40         O  0.50653201  0.79915280  0.60575688    -0.58100
O41         O  0.57142868  0.77071786  0.59358349    -0.56500
O42         O  0.43262567  0.76424684  0.52654515    -0.56500
O43         O  0.51026957  0.69674357  0.47951359    -0.55700
C44         C  0.88807717  0.56650589  0.45732903    -0.01600
C45         C  0.64664421  0.76297001  0.57767042    -0.01600
O46         O  0.95461839  0.60552921  0.47028779    -0.56900
C47         C  0.09328678  0.56283769  0.48536143     0.75700
O48         O  0.98015984  0.64169398  0.58978173    -0.58000
C49         C  0.93124359  0.57607645  0.48159516     0.75700
C50         C  0.01086117  0.55523525  0.62759566     0.78100
Cd51       Cd  0.01215838  0.59103934  0.53368778     1.37500
O52         O  0.06860724  0.53859774  0.50542972    -0.56900
O53         O  0.98332757  0.54822190  0.59560762    -0.55700
C54         C  0.01161288  0.66374015  0.59671666     0.78100
O55         O  0.04107448  0.57643139  0.61470886    -0.58100
O56         O  0.07780659  0.59848353  0.48227026    -0.56500
O57         O  0.94752604  0.55254524  0.51186860    -0.56500
O58         O  0.03990403  0.65914802  0.56525574    -0.55700
C59         C  0.36827174  0.76332601  0.57518886    -0.01600
C60         C  0.13894225  0.54974275  0.46788633    -0.01600
O61         O  0.56548617  0.74663090  0.93930660    -0.56900
C62         C  0.41043608  0.75763286  0.97263096     0.75700
O63         O  0.50103326  0.76831181  0.08037725    -0.58000
C64         C  0.59148157  0.76221817  0.96988190     0.75700
C65         C  0.50105612  0.83010764  0.94454760     0.78100
Cd66       Cd  0.50095666  0.75872626  0.99432002     1.37500
O67         O  0.43071778  0.72375081  0.97236822    -0.56900
O68         O  0.50246934  0.83146980  0.99089590    -0.55700
C69         C  0.50394905  0.73033305  0.08914014     0.78100
O70         O  0.49917254  0.79479643  0.92344298    -0.58100
O71         O  0.43056878  0.78832293  0.98951560    -0.56500
O72         O  0.57592201  0.77084211  0.01134365    -0.56500
O73         O  0.50422394  0.70478936  0.05293401    -0.55700
C74         C  0.86721787  0.57340372  0.08377226    -0.01600
C75         C  0.63786515  0.77422720  0.95906037    -0.01600
O76         O  0.93464735  0.61220372  0.07306469    -0.56900
C77         C  0.08494654  0.59093779  0.07584348     0.75700
O78         O  0.00115371  0.53913635  0.09349236    -0.58000
C79         C  0.91189944  0.58114247  0.06263079     0.75700
C80         C  0.00388121  0.61838842  0.93801932     0.78100
Cd81       Cd  0.99989403  0.58355616  0.03216250     1.37500
O82         O  0.07570272  0.61420564  0.04159780    -0.56900
O83         O  0.99979272  0.64031938  0.97689390    -0.55700
C84         C  0.00955096  0.50615702  0.06991910     0.78100
O85         O  0.00557602  0.57956652  0.94247859    -0.58100
O86         O  0.05422871  0.57385265  0.09360799    -0.56500
O87         O  0.92886430  0.55519441  0.03341778    -0.56500
O88         O  0.01197121  0.50814941  0.02369466    -0.55700
C89         C  0.12921691  0.57721239  0.09130204    -0.01600
C90         C  0.36505534  0.76271746  0.95291111    -0.01600
O91         O  0.40953942  0.12259321  0.06183779    -0.56900
C92         C  0.55373361  0.09210755  0.05963085     0.75700
O93         O  0.50328399  0.09609570  0.92503636    -0.58000
C94         C  0.39188422  0.08823657  0.05279627     0.75700
C95         C  0.46965722  0.18399752  0.94588441     0.78100
Cd96       Cd  0.47298363  0.11216442  0.00452743     1.37500
O97         O  0.53007316  0.06506606  0.04024117    -0.56900
O98         O  0.50351504  0.17005020  0.96153432    -0.55700
C99         C  0.47259660  0.07783442  0.90623488     0.78100
O100        O  0.43774356  0.17296167  0.96834589    -0.58100
O101        O  0.53975269  0.12838095  0.05559825    -0.56500
O102        O  0.41338785  0.06452820  0.02502228    -0.56500
O103        O  0.44280561  0.07199556  0.93452659    -0.55700
C104        C  0.84441594  0.26560359  0.96047894    -0.01600
C105        C  0.59749154  0.08210833  0.08309449    -0.01600
O106        O  0.02820027  0.27277851  0.01333341    -0.56900
C107        C  0.88569603  0.25002461  0.98554945     0.75700
O108        O  0.94357876  0.15346136  0.05948626    -0.58000
C109        C  0.05150267  0.24882479  0.98865051     0.75700
C110        C  0.96226046  0.26787456  0.12941691     0.78100
Cd111      Cd  0.96694071  0.22633585  0.03526162     1.37500
O112        O  0.89415134  0.21303433  0.99490781    -0.56900
O113        O  0.93150465  0.26955352  0.10088330    -0.55700
C114        C  0.96516917  0.15632194  0.09822248     0.78100
O115        O  0.99345324  0.24866858  0.11306426    -0.58100
O116        O  0.91504458  0.27452615  0.99696971    -0.56500
O117        O  0.03446060  0.21408811  0.97925547    -0.56500
O118        O  0.98900478  0.18640245  0.10160486    -0.55700
C119        C  0.34897702  0.07435888  0.07560003    -0.01600
C120        C  0.09589704  0.26235740  0.96959064    -0.01600
C121        C  0.27882756  0.17290211  0.04987026    -0.04500
C122        C  0.24320072  0.15639578  0.02675139     0.09600
C123        C  0.24159612  0.11352886  0.01903859    -0.01900
C124        C  0.27269500  0.08741865  0.03804491    -0.00200
C125        C  0.31166805  0.10323775  0.05676857    -0.03800
C126        C  0.31266205  0.14733341  0.06385501     0.03200
C127        C  0.20603259  0.18380128  0.01431959     0.10100
C128        C  0.20633372  0.09569661  0.99325790     0.36000
C129        C  0.34455346  0.16701496  0.09349328     0.39400
C130        C  0.20948001  0.21431715  0.98028179    -0.04200
C131        C  0.17674608  0.24297912  0.97272102     0.03000
C132        C  0.13522153  0.23682709  0.99038354    -0.03800
C133        C  0.13263950  0.20501719  0.02496997     0.00000
C134        C  0.16776208  0.18077194  0.03815867    -0.02600
C135        C  0.24718240  0.21588296  0.95193610     0.36700
C136        C  0.09497364  0.19656811  0.04979235     0.40300
C137        C  0.18930861  0.27950772  0.94930482     0.39400
C138        C  0.16436073  0.15231033  0.07699985     0.36400
C139        C  0.27951467  0.21660810  0.06225656     0.37100
C140        C  0.25916703  0.04603538  0.04658896     0.40300
N141        N  0.20494410  0.30743874  0.93266482    -0.37800
N142        N  0.27701485  0.21681743  0.92905378    -0.39300
N143        N  0.06587140  0.18875842  0.07140608    -0.37100
N144        N  0.16111308  0.12975467  0.10799725    -0.39500
N145        N  0.17835458  0.08119150  0.97280854    -0.39300
N146        N  0.24676026  0.01357692  0.05340277    -0.36900
N147        N  0.36889538  0.18370895  0.11793149    -0.37900
N148        N  0.27986984  0.25141507  0.07222337    -0.39600
C149        C  0.72972663  0.23185274  0.00427776    -0.04500
C150        C  0.73173780  0.18881106  0.00050982     0.09600
C151        C  0.76782157  0.17116496  0.97967604    -0.01900
C152        C  0.80210846  0.19579828  0.96587460    -0.00200
C153        C  0.80352615  0.23961335  0.97558366    -0.03800
C154        C  0.76435944  0.25694788  0.99328244     0.03200
C155        C  0.69615645  0.16305071  0.02045417     0.10100
C156        C  0.76947247  0.12712120  0.97050542     0.36000
C157        C  0.75592236  0.30048192  0.99967620     0.39400
C158        C  0.66740610  0.14170947  0.99004891    -0.04200
C159        C  0.63510319  0.11749469  0.00977197     0.03000
C160        C  0.62939252  0.11473422  0.06133959    -0.03800
C161        C  0.65386663  0.14329709  0.09038262     0.00000
C162        C  0.68845071  0.16383275  0.07078808    -0.02600
C163        C  0.67133333  0.14424274  0.93798690     0.36700
C164        C  0.64201467  0.15677375  0.13901483     0.40300
C165        C  0.61029748  0.09256027  0.97621982     0.39400
C166        C  0.71606465  0.18715747  0.10299032     0.36400
C167        C  0.69027628  0.25062396  0.01825593     0.37100
C168        C  0.83466547  0.17473016  0.93862488     0.40300
N169        N  0.59122835  0.07217336  0.94919147    -0.37800
N170        N  0.67432578  0.14633671  0.89642482    -0.39300
N171        N  0.63351410  0.16919283  0.17757527    -0.37100
N172        N  0.73809179  0.20590898  0.12843595    -0.39500
N173        N  0.77168998  0.09216449  0.96186284    -0.39300
N174        N  0.85963443  0.15638057  0.91684971    -0.36900
N175        N  0.74615036  0.33449980  0.00627398    -0.37900
N176        N  0.65881078  0.26545079  0.02893266    -0.39600
C177        C  0.31423643  0.86519573  0.01683592    -0.04500
C178        C  0.34164625  0.89605724  0.00260617     0.09600
C179        C  0.37140621  0.88448687  0.96763199    -0.01900
C180        C  0.37455500  0.84354409  0.94822555    -0.00200
C181        C  0.35194652  0.81006624  0.96771081    -0.03800
C182        C  0.31901205  0.82318147  0.99992189     0.03200
C183        C  0.33845233  0.94107984  0.02194626     0.10100
C184        C  0.39771467  0.91609452  0.94961037     0.36000
C185        C  0.28546859  0.79629755  0.01075469     0.39400
C186        C  0.34222490  0.95159014  0.07180829    -0.04200
C187        C  0.33829209  0.99307015  0.08934491     0.03000
C188        C  0.34267635  0.02686161  0.05767880    -0.03800
C189        C  0.33945310  0.01553053  0.00691775     0.00000
C190        C  0.33297803  0.97399676  0.99040557    -0.02600
C191        C  0.34948705  0.91958632  0.10596038     0.36700
C192        C  0.33919989  0.04689663  0.97114886     0.40300
C193        C  0.32282180  0.99855164  0.13816275     0.39400
C194        C  0.31938640  0.96524519  0.94089969     0.36400
C195        C  0.27927027  0.87718840  0.04717517     0.37100
C196        C  0.39709933  0.83818986  0.90345499     0.40300
N197        N  0.30964814  0.00109704  0.17701293    -0.37800
N198        N  0.35525519  0.89418187  0.13331492    -0.39300
N199        N  0.33871653  0.07208531  0.94285788    -0.37100
N200        N  0.30834256  0.95824914  0.90148959    -0.39500
N201        N  0.41621525  0.94339474  0.93586442    -0.39300
N202        N  0.41248129  0.83581889  0.86577054    -0.36900
N203        N  0.25685693  0.77660064  0.01835662    -0.37900
N204        N  0.25140637  0.88662150  0.07142751    -0.39600
C205        C  0.10581424  0.47469835  0.01090543    -0.04500
C206        C  0.12395107  0.44234649  0.03665035     0.09600
C207        C  0.14582121  0.45473463  0.07924022    -0.01900
C208        C  0.13920223  0.49425427  0.10172337    -0.00200
C209        C  0.12789255  0.52883661  0.07346299    -0.03800
C210        C  0.11335389  0.51669822  0.02512062     0.03200
C211        C  0.11926114  0.39644810  0.01975489     0.10100
C212        C  0.17658145  0.42778741  0.09975987     0.36000
C213        C  0.10794970  0.54637927  0.98781265     0.39400
C214        C  0.12724193  0.38274560  0.97152406    -0.04200
C215        C  0.11742582  0.34194343  0.95392711     0.03000
C216        C  0.10412804  0.31034044  0.98581848    -0.03800
C217        C  0.10190765  0.32388716  0.03603041     0.00000
C218        C  0.10718346  0.36593172  0.05175255    -0.02600
C219        C  0.14929623  0.41004347  0.94044889     0.36700
C220        C  0.09511229  0.29513377  0.07376892     0.40300
C221        C  0.12623184  0.33343361  0.90322904     0.39400
C222        C  0.10268038  0.37731438  0.10254777     0.36400
C223        C  0.07944512  0.46531437  0.96926961     0.37100
C224        C  0.13575118  0.49379149  0.15371777     0.40300
N225        N  0.13584077  0.32766915  0.86324862    -0.37800
N226        N  0.16695986  0.43175834  0.91583930    -0.39300
N227        N  0.08965772  0.27463936  0.10631237    -0.37100
N228        N  0.10161641  0.38722487  0.14314981    -0.39500
N229        N  0.20135275  0.40651496  0.11611831    -0.39300
N230        N  0.13212120  0.48989448  0.19496450    -0.36900
N231        N  0.10404546  0.56915780  0.95702048    -0.37900
N232        N  0.05826764  0.45792269  0.93614104    -0.39600
C233        C  0.27917855  0.67765286  0.96519061    -0.04500
C234        C  0.27304676  0.67584125  0.01561650     0.09600
C235        C  0.30281003  0.69591308  0.04614559    -0.01900
C236        C  0.33333264  0.72249135  0.02676664    -0.00200
C237        C  0.33701009  0.72743439  0.97554134    -0.03800
C238        C  0.31400198  0.69778226  0.94642131     0.03200
C239        C  0.23717368  0.65043402  0.03528633     0.10100
C240        C  0.30219023  0.68903781  0.09759690     0.36000
C241        C  0.32915806  0.68119781  0.90026676     0.39400
C242        C  0.23454195  0.60782323  0.02459329    -0.04200
C243        C  0.19949884  0.58433754  0.03825387     0.03000
C244        C  0.16524404  0.60262736  0.06540766    -0.03800
C245        C  0.16846512  0.64622915  0.07440843     0.00000
C246        C  0.20415730  0.66892149  0.06147170    -0.02600
C247        C  0.26966081  0.58732959  0.00111040     0.36700
C248        C  0.13474835  0.67003468  0.09556707     0.40300
C249        C  0.20202749  0.54097005  0.02479581     0.39400
C250        C  0.20706084  0.71175650  0.07736271     0.36400
C251        C  0.25005555  0.65774635  0.93171584     0.37100
C252        C  0.35994842  0.74548059  0.06024277     0.40300
N253        N  0.20637131  0.50678892  0.01281256    -0.37800
N254        N  0.29751099  0.57091555  0.98234834    -0.39300
N255        N  0.10961949  0.69249251  0.11062649    -0.37100
N256        N  0.20838620  0.74536012  0.09233039    -0.39500
N257        N  0.30184688  0.68318815  0.13866482    -0.39300
N258        N  0.38109819  0.76372033  0.08718702    -0.36900
N259        N  0.34062339  0.66677120  0.86369502    -0.37900
N260        N  0.22696579  0.64186840  0.90496689    -0.39600
C261        C  0.00435189  0.39575353  0.10691725    -0.04500
C262        C  0.01066417  0.40059608  0.15781775     0.09600
C263        C  0.02584219  0.43768882  0.17703007    -0.01900
C264        C  0.02821769  0.47156023  0.14737389    -0.00200
C265        C  0.01620266  0.46833920  0.09750934    -0.03800
C266        C  0.00587322  0.42971165  0.07711972     0.03200
C267        C  0.99599321  0.36894454  0.19089889     0.10100
C268        C  0.03895066  0.44059389  0.22740898     0.36000
C269        C  0.99142046  0.42549732  0.02715101     0.39400
C270        C  0.02162848  0.33551753  0.20172567    -0.04200
C271        C  0.00511376  0.29592570  0.19640728     0.03000
C272        C  0.96522994  0.29182165  0.17587984    -0.03800
C273        C  0.93702423  0.32421003  0.18511013     0.00000
C274        C  0.95301838  0.36367867  0.19453204    -0.02600
C275        C  0.06316068  0.34189038  0.21989778     0.36700
C276        C  0.89297406  0.31747564  0.18174454     0.40300
C277        C  0.03002840  0.25998245  0.20577276     0.39400
C278        C  0.92622897  0.39874177  0.20449536     0.36400
C279        C  0.99353915  0.35680449  0.08423550     0.37100
C280        C  0.03877604  0.51056295  0.17000303     0.40300
N281        N  0.04986309  0.23126462  0.21345559    -0.37800
N282        N  0.09612160  0.34655499  0.23571714    -0.39300
N283        N  0.85760352  0.31238558  0.18016285    -0.37100
N284        N  0.90452424  0.42648981  0.21281307    -0.39500
N285        N  0.04995980  0.44182469  0.26737116    -0.39300
N286        N  0.04552807  0.54246281  0.18768124    -0.36900
N287        N  0.97892106  0.42195682  0.98786720    -0.37900
N288        N  0.98306129  0.32819292  0.06163168    -0.39600
C289        C  0.64209001  0.87087479  0.05297105    -0.04500
C290        C  0.62847011  0.90331494  0.02449760     0.09600
C291        C  0.61737815  0.89388216  0.97609419    -0.01900
C292        C  0.61833188  0.85299834  0.95676413    -0.00200
C293        C  0.63715706  0.82032185  0.98215310    -0.03800
C294        C  0.64517009  0.82985760  0.03291808     0.03200
C295        C  0.62424406  0.94753304  0.04456251     0.10100
C296        C  0.60643124  0.92718021  0.94543754     0.36000
C297        C  0.65383841  0.79773785  0.06641090     0.39400
C298        C  0.65206672  0.97765932  0.03067466    -0.04200
C299        C  0.64553482  0.02003562  0.04339392     0.03000
C300        C  0.60871101  0.03450297  0.06879415    -0.03800
C301        C  0.58301689  0.00226826  0.08614028     0.00000
C302        C  0.59112940  0.95994095  0.07468432    -0.02600
C303        C  0.68932855  0.96424446  0.00504050     0.36700
C304        C  0.54943959  0.01153256  0.11953008     0.40300
C305        C  0.68054923  0.04590806  0.03468959     0.39400
C306        C  0.56647238  0.92856699  0.09620294     0.36400
C307        C  0.65310268  0.87980069  0.10329921     0.37100
C308        C  0.59951487  0.84503863  0.91007204     0.40300
N309        N  0.71031579  0.06440089  0.02846670    -0.37800
N310        N  0.71913393  0.95356256  0.98507883    -0.39300
N311        N  0.52350102  0.01799963  0.14754203    -0.37100
N312        N  0.54751804  0.90339366  0.11417685    -0.39500
N313        N  0.59934581  0.95490580  0.92197817    -0.39300
N314        N  0.58578488  0.83819839  0.87203973    -0.36900
N315        N  0.66065406  0.77259348  0.09383850    -0.37900
N316        N  0.66170290  0.88692705  0.14348855    -0.39600
C317        C  0.83008606  0.36585281  0.04348937    -0.04500
C318        C  0.83997593  0.39798664  0.01282598     0.09600
C319        C  0.85499473  0.38748349  0.96620908    -0.01900
C320        C  0.85831377  0.34579563  0.94942852    -0.00200
C321        C  0.84379358  0.31293725  0.97818064    -0.03800
C322        C  0.83605935  0.32417385  0.02800413     0.03200
C323        C  0.84338671  0.44213085  0.03273770     0.10100
C324        C  0.86957458  0.42000970  0.93628505     0.36000
C325        C  0.83225744  0.29262999  0.06335264     0.39400
C326        C  0.87521553  0.45261723  0.06542260    -0.04200
C327        C  0.88242663  0.49373370  0.08118884     0.03000
C328        C  0.85629389  0.52693841  0.06592415    -0.03800
C329        C  0.82056445  0.51444116  0.03755111     0.00000
C330        C  0.81578240  0.47315459  0.01925717    -0.02600
C331        C  0.89850060  0.41943740  0.08536074     0.36700
C332        C  0.78482059  0.54071696  0.03276705     0.40300
C333        C  0.91428016  0.50035301  0.11784096     0.39400
C334        C  0.78063397  0.46173338  0.98878914     0.36400
C335        C  0.81320184  0.37577327  0.09114178     0.37100
C336        C  0.88268829  0.33814493  0.90602494     0.40300
N337        N  0.93780860  0.50504823  0.14929003    -0.37800
N338        N  0.91323807  0.39024208  0.10027572    -0.39300
N339        N  0.75499948  0.56008335  0.02888871    -0.37100
N340        N  0.75255829  0.45245884  0.96464283    -0.39500
N341        N  0.88125910  0.44598932  0.91268051    -0.39300
N342        N  0.90290535  0.33379973  0.87168186    -0.36900
N343        N  0.82887597  0.26697469  0.09075417    -0.37900
N344        N  0.79944415  0.38379272  0.12899522    -0.39600
C345        C  0.74758612  0.73021615  0.99552237    -0.04500
C346        C  0.73904548  0.68956277  0.00644411     0.09600
C347        C  0.69726382  0.67763548  0.00879311    -0.01900
C348        C  0.66443430  0.70574421  0.00003805    -0.00200
C349        C  0.67237546  0.74608580  0.98350646    -0.03800
C350        C  0.71514151  0.75840393  0.98577384     0.03200
C351        C  0.77335880  0.66232104  0.02548429     0.10100
C352        C  0.68748938  0.63599376  0.02099527     0.36000
C353        C  0.72673566  0.80114660  0.98899726     0.39400
C354        C  0.77821678  0.65907387  0.07560586    -0.04200
C355        C  0.80646682  0.63050686  0.09508263     0.03000
C356        C  0.83551261  0.60735085  0.06456094    -0.03800
C357        C  0.83265588  0.61489839  0.01351823     0.00000
C358        C  0.80132231  0.64098450  0.99458607    -0.02600
C359        C  0.75352958  0.68593239  0.10769516     0.36700
C360        C  0.85909632  0.59311658  0.97873564     0.40300
C361        C  0.80099044  0.62463713  0.14632360     0.39400
C362        C  0.79713631  0.64533267  0.94270559     0.36400
C363        C  0.79034490  0.74384587  0.99756948     0.37100
C364        C  0.62329018  0.69278129  0.01289214     0.40300
N365        N  0.79427411  0.62168927  0.18715789    -0.37800
N366        N  0.73430382  0.70765841  0.13313877    -0.39300
N367        N  0.87955497  0.57608478  0.95000103    -0.37100
N368        N  0.79369708  0.64883231  0.90133663    -0.39500
N369        N  0.67798603  0.60313934  0.03034375    -0.39300
N370        N  0.59110664  0.68113259  0.02399896    -0.36900
N371        N  0.73835429  0.83439363  0.99571058    -0.37900
N372        N  0.82437729  0.75459957  0.99949041    -0.39600
C373        C  0.52177835  0.00605814  0.83123488    -0.04500
C374        C  0.48889620  0.97775691  0.83482633     0.09600
C375        C  0.44782412  0.99281289  0.83188546    -0.01900
C376        C  0.44062876  0.03493820  0.84092693    -0.00200
C377        C  0.47401530  0.05950739  0.85622035    -0.03800
C378        C  0.51330150  0.04812181  0.83878432     0.03200
C379        C  0.49607353  0.93927997  0.86090843     0.10100
C380        C  0.41312532  0.96510410  0.82706357     0.36000
C381        C  0.54618679  0.07807371  0.83844468     0.39400
C382        C  0.50385362  0.94219918  0.91142354    -0.04200
C383        C  0.50251231  0.90708554  0.93910760     0.03000
C384        C  0.50091346  0.86777693  0.91578220    -0.03800
C385        C  0.49755982  0.86499138  0.86440188     0.00000
C386        C  0.48989210  0.90030650  0.83844217    -0.02600
C387        C  0.50913257  0.98161895  0.93675517     0.36700
C388        C  0.50137381  0.82604078  0.83727402     0.40300
C389        C  0.49749205  0.91257612  0.99113390     0.39400
C390        C  0.47171883  0.89545947  0.79063040     0.36400
C391        C  0.56444659  0.99262417  0.82838015     0.37100
C392        C  0.39930252  0.05212541  0.83996636     0.40300
N393        N  0.49110421  0.91756231  0.03215123    -0.37800
N394        N  0.51420499  0.01182281  0.95914410    -0.39300
N395        N  0.50573307  0.79508002  0.81603213    -0.37100
N396        N  0.45602805  0.88909817  0.75335307    -0.39500
N397        N  0.38526811  0.94311745  0.82326686    -0.39300
N398        N  0.36617785  0.06566671  0.83785224    -0.36900
N399        N  0.57258909  0.10181411  0.83834146    -0.37900
N400        N  0.59910430  0.98358128  0.82594984    -0.39600
C401        C  0.17389232  0.58396222  0.33921785    -0.04500
C402        C  0.14034603  0.57257983  0.30889081     0.09600
C403        C  0.10784890  0.55022263  0.33001100    -0.01900
C404        C  0.10921361  0.53964904  0.37948393    -0.00200
C405        C  0.14180262  0.55306596  0.41058046    -0.03800
C406        C  0.17688986  0.56979420  0.38679182     0.03200
C407        C  0.14112628  0.58112070  0.25463725     0.10100
C408        C  0.07108189  0.53977270  0.30273642     0.36000
C409        C  0.21824335  0.56541630  0.40636428     0.39400
C410        C  0.17376279  0.56679470  0.22420261    -0.04200
C411        C  0.17232966  0.57161381  0.17303095     0.03000
C412        C  0.13526620  0.58501411  0.14932526    -0.03800
C413        C  0.10602037  0.60620059  0.18181870     0.00000
C414        C  0.10983944  0.60451455  0.23327215    -0.02600
C415        C  0.20765954  0.54356501  0.24471351     0.36700
C416        C  0.07093948  0.63013834  0.16546299     0.40300
C417        C  0.20852899  0.55856147  0.14561204     0.39400
C418        C  0.08127542  0.62735981  0.26495262     0.36400
C419        C  0.20523494  0.61155412  0.32232951     0.37100
C420        C  0.08092062  0.50909207  0.39612654     0.40300
N421        N  0.23867822  0.54781803  0.12641972    -0.37800
N422        N  0.23475821  0.52506681  0.26090239    -0.39300
N423        N  0.04207864  0.64898593  0.15446699    -0.37100
N424        N  0.05864609  0.64549225  0.29026656    -0.39500
N425        N  0.03972680  0.53214605  0.28444573    -0.39300
N426        N  0.06035656  0.48288490  0.40905253    -0.36900
N427        N  0.25174364  0.56056008  0.42003718    -0.37900
N428        N  0.23012445  0.63377919  0.30916350    -0.39600
C429        C  0.32167354  0.76547732  0.81903082    -0.04500
C430        C  0.35653090  0.75715378  0.79027909     0.09600
C431        C  0.39426926  0.74821756  0.81250039    -0.01900
C432        C  0.39730408  0.74570667  0.86342997    -0.00200
C433        C  0.36319289  0.75861174  0.89487649    -0.03800
C434        C  0.32511862  0.76845869  0.87021246     0.03200
C435        C  0.35416885  0.75831414  0.73602277     0.10100
C436        C  0.43034543  0.74054188  0.78181059     0.36000
C437        C  0.28757279  0.77975251  0.89597811     0.39400
C438        C  0.34799547  0.79572012  0.71395329    -0.04200
C439        C  0.34736999  0.79748241  0.66298542     0.03000
C440        C  0.36135585  0.76288431  0.63246724    -0.03800
C441        C  0.36581449  0.72469599  0.65632512     0.00000
C442        C  0.36050056  0.72250654  0.70693238    -0.02600
C443        C  0.34261339  0.83301685  0.74420150     0.36700
C444        C  0.37465331  0.68641616  0.62951414     0.40300
C445        C  0.33080891  0.83547034  0.64503977     0.39400
C446        C  0.36227208  0.68311895  0.72965454     0.36400
C447        C  0.28168371  0.77020572  0.79539872     0.37100
C448        C  0.43537517  0.72673356  0.87911947     0.40300
N449        N  0.31734308  0.86649063  0.63312099    -0.37800
N450        N  0.33832193  0.86265488  0.76819383    -0.39300
N451        N  0.38169023  0.65534548  0.60937308    -0.37100
N452        N  0.36372378  0.65178566  0.74781117    -0.39500
N453        N  0.45841776  0.73411771  0.75674021    -0.39300
N454        N  0.46650173  0.71040663  0.88716730    -0.36900
N455        N  0.25575672  0.78875823  0.91232399    -0.37900
N456        N  0.24986790  0.77366534  0.77644780    -0.39600
C457        C  0.30827047  0.66936126  0.51066195    -0.04500
C458        C  0.26907921  0.67268494  0.53313892     0.09600
C459        C  0.26150005  0.70686395  0.56427132    -0.01900
C460        C  0.29104872  0.73843042  0.57015782    -0.00200
C461        C  0.33316985  0.73304136  0.55417060    -0.03800
C462        C  0.34043948  0.69802629  0.52214793     0.03200
C463        C  0.23454878  0.64228305  0.52114741     0.10100
C464        C  0.22236723  0.71024463  0.58991193     0.36000
C465        C  0.37947205  0.69195081  0.49738846     0.39400
C466        C  0.23722808  0.60155132  0.53545294    -0.04200
C467        C  0.20821084  0.57146372  0.51862644     0.03000
C468        C  0.17144274  0.58243084  0.49154038    -0.03800
C469        C  0.16880626  0.62528248  0.47950497     0.00000
C470        C  0.19975205  0.65406317  0.49406446    -0.02600
C471        C  0.27128684  0.59028614  0.56696785     0.36700
C472        C  0.13820490  0.64008414  0.44541271     0.40300
C473        C  0.22195953  0.52941033  0.52335524     0.39400
C474        C  0.19648035  0.69630163  0.47933043     0.36400
C475        C  0.31549940  0.63670621  0.47447754     0.37100
C476        C  0.27475775  0.77757751  0.58779594     0.40300
N477        N  0.23483607  0.49650498  0.52752857    -0.37800
N478        N  0.29834795  0.58152007  0.59225122    -0.39300
N479        N  0.11476870  0.65258255  0.41763799    -0.37100
N480        N  0.19359569  0.72996491  0.46794420    -0.39500
N481        N  0.19141205  0.71340471  0.61061173    -0.39300
N482        N  0.25703086  0.80715656  0.59993531    -0.36900
N483        N  0.41003089  0.68583443  0.47658841    -0.37900
N484        N  0.32219977  0.61116510  0.44523255    -0.39600
C485        C  0.98678367  0.63938685  0.80382901    -0.04500
C486        C  0.01085966  0.67486401  0.79794867     0.09600
C487        C  0.03164609  0.69252739  0.83868600    -0.01900
C488        C  0.03024834  0.67359086  0.88399267    -0.00200
C489        C  0.00645376  0.63767610  0.88967945    -0.03800
C490        C  0.98439861  0.62103190  0.84918835     0.03200
C491        C  0.01670882  0.69027136  0.74753564     0.10100
C492        C  0.05429354  0.73034805  0.83400234     0.36000
C493        C  0.95845991  0.58533937  0.85399039     0.39400
C494        C  0.98248085  0.70514030  0.72122132    -0.04200
C495        C  0.98241362  0.70231493  0.66991418     0.03000
C496        C  0.01735458  0.68631630  0.64459099    -0.03800
C497        C  0.05435040  0.67966279  0.67114753     0.00000
C498        C  0.05381248  0.68108611  0.72243641    -0.02600
C499        C  0.94589188  0.71954875  0.74708781     0.36700
C500        C  0.09163052  0.66574334  0.64630998     0.40300
C501        C  0.94508357  0.71248467  0.64347798     0.39400
C502        C  0.09046317  0.66927999  0.74920601     0.36400
C503        C  0.96399354  0.62200905  0.76274782     0.37100
C504        C  0.05540886  0.68976539  0.92391612     0.40300
N505        N  0.91501984  0.72045004  0.62279345    -0.37800
N506        N  0.91665053  0.73097353  0.76768767    -0.39300
N507        N  0.12123677  0.65416128  0.62658595    -0.37100
N508        N  0.11973835  0.66006956  0.77065609    -0.39500
N509        N  0.07223801  0.76061179  0.83035469    -0.39300
N510        N  0.07586855  0.70234229  0.95563883    -0.36900
N511        N  0.93768666  0.55687477  0.85728887    -0.37900
N512        N  0.94546173  0.60975122  0.72936356    -0.39600
C513        C  0.63539041  0.79112691  0.71836735    -0.04500
C514        C  0.66028371  0.76216456  0.74116689     0.09600
C515        C  0.68730992  0.73838616  0.71157757    -0.01900
C516        C  0.68813295  0.74290906  0.66023248    -0.00200
C517        C  0.65684970  0.76617844  0.63551194    -0.03800
C518        C  0.63410301  0.79374861  0.66718133     0.03200
C519        C  0.66127379  0.76133561  0.79669152     0.10100
C520        C  0.71608770  0.71074115  0.73446246     0.36000
C521        C  0.61584124  0.83017303  0.64850832     0.39400
C522        C  0.64076918  0.73087819  0.82160416    -0.04200
C523        C  0.63721567  0.73322528  0.87319876     0.03000
C524        C  0.64870547  0.76950039  0.90171020    -0.03800
C525        C  0.67367582  0.79800891  0.87561881     0.00000
C526        C  0.68017053  0.79312492  0.82452757    -0.02600
C527        C  0.62316581  0.69660118  0.79360440     0.36700
C528        C  0.69178045  0.83453248  0.89814066     0.40300
C529        C  0.62324172  0.69640492  0.89540773     0.39400
C530        C  0.70617902  0.82167688  0.79966796     0.36400
C531        C  0.61241362  0.81998796  0.74864817     0.37100
C532        C  0.72615429  0.73044109  0.63663856     0.40300
N533        N  0.61189769  0.66580745  0.91024761    -0.37800
N534        N  0.60918260  0.66935061  0.77107228    -0.39300
N535        N  0.70579532  0.86543403  0.91198974    -0.37100
N536        N  0.72702299  0.84424796  0.77987788    -0.39500
N537        N  0.73885367  0.68852027  0.75277391    -0.39300
N538        N  0.75766653  0.72062923  0.62021039    -0.36900
N539        N  0.60423842  0.86058404  0.63322951    -0.37900
N540        N  0.59479625  0.84273495  0.77411887    -0.39600
C541        C  0.87201529  0.60216394  0.32490415    -0.04500
C542        C  0.89335067  0.57178368  0.29744596     0.09600
C543        C  0.92115364  0.54582393  0.32138497    -0.01900
C544        C  0.92385272  0.54751122  0.37294687    -0.00200
C545        C  0.89531497  0.57210358  0.40104726    -0.03800
C546        C  0.87657887  0.60489057  0.37555327     0.03200
C547        C  0.88814086  0.57001332  0.24321480     0.10100
C548        C  0.94378432  0.51482971  0.29322172     0.36000
C549        C  0.87118594  0.64558311  0.39773786     0.39400
C550        C  0.90708837  0.59987501  0.21560589    -0.04200
C551        C  0.89454919  0.60544606  0.16722991     0.03000
C552        C  0.87032376  0.57518236  0.14141440    -0.03800
C553        C  0.84813808  0.54759685  0.17121752     0.00000
C554        C  0.85709176  0.54542134  0.22136278    -0.02600
C555        C  0.93749399  0.62711223  0.23825118     0.36700
C556        C  0.81195560  0.52553039  0.15315727     0.40300
C557        C  0.89890772  0.64623648  0.14900249     0.39400
C558        C  0.83179980  0.52007183  0.25123626     0.36400
C559        C  0.84627312  0.63202805  0.30097664     0.37100
C560        C  0.95346149  0.52139715  0.39665800     0.40300
N561        N  0.90203377  0.67911237  0.13522830    -0.37800
N562        N  0.96181905  0.64867952  0.25637733    -0.39300
N563        N  0.78267006  0.50777678  0.14058881    -0.37100
N564        N  0.81040884  0.50028527  0.27410596    -0.39500
N565        N  0.96084748  0.48945830  0.27050202    -0.39300
N566        N  0.97595169  0.49997624  0.41650174    -0.36900
N567        N  0.86767237  0.67912054  0.41259069    -0.37900
N568        N  0.82580850  0.65618191  0.28253240    -0.39600
C569        C  0.81760002  0.65702598  0.51661256    -0.04500
C570        C  0.77720648  0.64447836  0.50331433     0.09600
C571        C  0.77305425  0.60837534  0.47420508    -0.01900
C572        C  0.80828563  0.58479320  0.45905946    -0.00200
C573        C  0.84973201  0.59548682  0.47426476    -0.03800
C574        C  0.85317265  0.63307382  0.50319991     0.03200
C575        C  0.73961643  0.67167208  0.51575018     0.10100
C576        C  0.73195812  0.59634449  0.45770216     0.36000
C577        C  0.89267290  0.65157480  0.51493586     0.39400
C578        C  0.73468062  0.70959431  0.49408703    -0.04200
C579        C  0.70518145  0.73917719  0.51167236     0.03000
C580        C  0.67593980  0.72983712  0.54931747    -0.03800
C581        C  0.67657410  0.68781172  0.56348548     0.00000
C582        C  0.70932263  0.66027873  0.54916284    -0.02600
C583        C  0.76075963  0.71821155  0.45295763     0.36700
C584        C  0.64649636  0.67356794  0.59770568     0.40300
C585        C  0.70780945  0.77862248  0.48968496     0.39400
C586        C  0.71346205  0.62093458  0.57139536     0.36400
C587        C  0.82318967  0.69673727  0.54147431     0.37100
C588        C  0.80037497  0.55009904  0.42598186     0.40300
N589        N  0.71182247  0.80924907  0.47047629    -0.37800
N590        N  0.78118002  0.72495265  0.41998620    -0.39300
N591        N  0.62284609  0.66204057  0.62525910    -0.37100
N592        N  0.71706929  0.58960731  0.58926176    -0.39500
N593        N  0.69923000  0.58672078  0.44462747    -0.39300
N594        N  0.79098677  0.52317575  0.39971654    -0.36900
N595        N  0.92258622  0.66965179  0.52391906    -0.37900
N596        N  0.82881992  0.72874161  0.55988030    -0.39600
C597        C  0.53185573  0.73176757  0.22286008    -0.04500
C598        C  0.50869208  0.69863179  0.23910957     0.09600
C599        C  0.48708075  0.67306614  0.20536516    -0.01900
C600        C  0.48635186  0.68233066  0.15576701    -0.00200
C601        C  0.50770008  0.71709049  0.13988777    -0.03800
C602        C  0.53172539  0.74075049  0.17352385     0.03200
C603        C  0.50331560  0.69481991  0.29241940     0.10100
C604        C  0.46465087  0.63806251  0.22208460     0.36000
C605        C  0.55631034  0.77472401  0.15765257     0.39400
C606        C  0.47002903  0.71577722  0.31535822    -0.04200
C607        C  0.47077594  0.72357627  0.36586043     0.03000
C608        C  0.50384552  0.70861877  0.39403640    -0.03800
C609        C  0.53456549  0.68334967  0.37168238     0.00000
C610        C  0.53486989  0.67737145  0.32070331    -0.02600
C611        C  0.43605124  0.73114966  0.28648334     0.36700
C612        C  0.56713592  0.66556011  0.40063828     0.40300
C613        C  0.43787245  0.74787237  0.38863163     0.39400
C614        C  0.56884340  0.65547723  0.29698763     0.36400
C615        C  0.55449785  0.75785147  0.25750035     0.37100
C616        C  0.46167980  0.65746959  0.12193851     0.40300
N617        N  0.41172730  0.76743027  0.40665144    -0.37800
N618        N  0.40889752  0.74307125  0.26329321    -0.39300
N619        N  0.59302493  0.65112030  0.42371930    -0.37100
N620        N  0.59607016  0.63830132  0.27792143    -0.39500
N621        N  0.44685663  0.61005712  0.23544185    -0.39300
N622        N  0.44188082  0.63760276  0.09510041    -0.36900
N623        N  0.57567454  0.80197139  0.14506029    -0.37900
N624        N  0.57240878  0.77864415  0.28521509    -0.39600
C625        C  0.32844966  0.10067555  0.21638653    -0.04500
C626        C  0.36132087  0.08030119  0.23866258     0.09600
C627        C  0.39119849  0.06045679  0.20877623    -0.01900
C628        C  0.38835385  0.06082006  0.15733956    -0.00200
C629        C  0.35333344  0.07871489  0.13351189    -0.03800
C630        C  0.32209414  0.09660689  0.16554248     0.03200
C631        C  0.36253739  0.07696942  0.29354550     0.10100
C632        C  0.42369022  0.03699368  0.23124721     0.36000
C633        C  0.28022990  0.10552877  0.15018448     0.39400
C634        C  0.33199104  0.05530221  0.31772885    -0.04200
C635        C  0.33310302  0.05215982  0.36889501     0.03000
C636        C  0.36665898  0.06852856  0.39804569    -0.03800
C637        C  0.39945475  0.08697893  0.37130005     0.00000
C638        C  0.39480303  0.09453641  0.32125905    -0.02600
C639        C  0.29835549  0.03630873  0.28993606     0.36700
C640        C  0.44009853  0.09514738  0.39163768     0.40300
C641        C  0.30045910  0.02812980  0.38890766     0.39400
C642        C  0.42188848  0.12279700  0.29812134     0.36400
C643        C  0.29945208  0.12431002  0.24669720     0.37100
C644        C  0.41871718  0.03698530  0.12956624     0.40300
N645        N  0.27313585  0.00742375  0.39882302    -0.37800
N646        N  0.27074019  0.02139907  0.26920857    -0.39300
N647        N  0.47321451  0.10151077  0.40610528    -0.37100
N648        N  0.44161235  0.14635646  0.27854828    -0.39500
N649        N  0.44919439  0.01789627  0.24945468    -0.39300
N650        N  0.44202222  0.01702047  0.10716471    -0.36900
N651        N  0.24613331  0.11302672  0.14091515    -0.37900
N652        N  0.27635600  0.14292786  0.27095041    -0.39600
C653        C  0.37685241  0.94348713  0.45533664    -0.04500
C654        C  0.36079718  0.93472087  0.50116216     0.09600
C655        C  0.35119654  0.96824394  0.53331013    -0.01900
C656        C  0.35918949  0.00906694  0.52059679    -0.00200
C657        C  0.36607266  0.01877713  0.47115779    -0.03800
C658        C  0.37981289  0.98465690  0.44034552     0.03200
C659        C  0.36144228  0.89085524  0.51861452     0.10100
C660        C  0.33186581  0.96117969  0.57954735     0.36000
C661        C  0.40293661  0.99051851  0.39635074     0.39400
C662        C  0.38882216  0.88028588  0.55586731    -0.04200
C663        C  0.39161974  0.83990642  0.57223429     0.03000
C664        C  0.36502086  0.80795357  0.55326420    -0.03800
C665        C  0.34044120  0.81823056  0.51159250     0.00000
C666        C  0.33721288  0.85948778  0.49663434    -0.02600
C667        C  0.41094306  0.91278839  0.58100276     0.36700
C668        C  0.32133525  0.78730252  0.47983386     0.40300
C669        C  0.41780527  0.83330267  0.61413156     0.39400
C670        C  0.30842945  0.86986555  0.45837412     0.36400
C671        C  0.39255644  0.90989136  0.42427960     0.37100
C672        C  0.35779143  0.04116796  0.55868832     0.40300
N673        N  0.43567393  0.82861745  0.64991092    -0.37800
N674        N  0.42497423  0.94124504  0.60071167    -0.39300
N675        N  0.30597657  0.76368454  0.45305669    -0.37100
N676        N  0.28549692  0.87812878  0.42787977    -0.39500
N677        N  0.31639030  0.95637896  0.61654114    -0.39300
N678        N  0.35665902  0.06662694  0.58910811    -0.36900
N679        N  0.42191406  0.99365701  0.36128439    -0.37900
N680        N  0.40505917  0.88310602  0.39960701    -0.39600
C681        C  0.11762461  0.22549760  0.83347124    -0.04500
C682        C  0.08930995  0.24895587  0.80635248     0.09600
C683        C  0.05808218  0.27047106  0.83364878    -0.01900
C684        C  0.06063695  0.27540922  0.88515577    -0.00200
C685        C  0.09134694  0.25428075  0.91228738    -0.03800
C686        C  0.11436187  0.22389298  0.88470260     0.03200
C687        C  0.09237432  0.24951452  0.75042116     0.10100
C688        C  0.02048900  0.28471139  0.81136025     0.36000
C689        C  0.12718883  0.18589989  0.90588167     0.39400
C690        C  0.08974017  0.21308843  0.72080150    -0.04200
C691        C  0.09886863  0.21259294  0.67001935     0.03000
C692        C  0.10756115  0.24956261  0.64501451    -0.03800
C693        C  0.10362389  0.28655544  0.67473422     0.00000
C694        C  0.09983205  0.28616670  0.72635379    -0.02600
C695        C  0.07660703  0.17562877  0.74258985     0.36700
C696        C  0.09905016  0.32598888  0.65354318     0.40300
C697        C  0.10012223  0.17288929  0.64428561     0.39400
C698        C  0.10269065  0.32461907  0.75430956     0.36400
C699        C  0.14982503  0.20150996  0.80906726     0.37100
C700        C  0.03209230  0.30397563  0.90961787     0.40300
N701        N  0.10124891  0.14101145  0.62427567    -0.37800
N702        N  0.06608083  0.14578221  0.75996436    -0.39300
N703        N  0.09555937  0.35823025  0.63812019    -0.37100
N704        N  0.10512213  0.35616455  0.77480781    -0.39500
N705        N  0.98802451  0.29592729  0.79975245    -0.39300
N706        N  0.00945007  0.32715566  0.92843804    -0.36900
N707        N  0.13653542  0.15482495  0.92166431    -0.37900
N708        N  0.17557164  0.18198689  0.79017701    -0.39600
C709        C  0.17110414  0.35719187  0.56934227    -0.04500
C710        C  0.14557123  0.37413909  0.53327107     0.09600
C711        C  0.11912283  0.34659666  0.50772213    -0.01900
C712        C  0.11846060  0.30445718  0.51852540    -0.00200
C713        C  0.13235189  0.29042992  0.56449516    -0.03800
C714        C  0.16448565  0.31632748  0.58550839     0.03200
C715        C  0.14916532  0.41903169  0.51823605     0.10100
C716        C  0.09356998  0.36089366  0.46836883     0.36000
C717        C  0.19003217  0.30409819  0.62554900     0.39400
C718        C  0.16213737  0.42821483  0.47117516    -0.04200
C719        C  0.16037722  0.46905204  0.45416293     0.03000
C720        C  0.14602285  0.50323253  0.48473300    -0.03800
C721        C  0.13908034  0.49370064  0.53443424     0.00000
C722        C  0.13999631  0.45263886  0.55036596    -0.02600
C723        C  0.17987355  0.39522313  0.44077330     0.36700
C724        C  0.13427381  0.52683579  0.57074696     0.40300
C725        C  0.17678876  0.47417485  0.40612095     0.39400
C726        C  0.13363400  0.44545456  0.60104309     0.36400
C727        C  0.20430591  0.38203051  0.59020933     0.37100
C728        C  0.11127509  0.27597054  0.47775794     0.40300
N729        N  0.19025245  0.47616250  0.36752043    -0.37800
N730        N  0.19418857  0.36885665  0.41690798    -0.39300
N731        N  0.13123477  0.55378990  0.59903607    -0.37100
N732        N  0.12969580  0.44024819  0.64188317    -0.39500
N733        N  0.07331278  0.37226235  0.43683785    -0.39300
N734        N  0.10622759  0.25544222  0.44308654    -0.36900
N735        N  0.21221781  0.29857900  0.65773493    -0.37900
N736        N  0.23065307  0.40189060  0.60700457    -0.39600
C737        C  0.25589390  0.10143720  0.51512000    -0.04500
C738        C  0.25407310  0.14324182  0.50547447     0.09600
C739        C  0.28589638  0.15930990  0.47763018    -0.01900
C740        C  0.32084048  0.13478907  0.46268315    -0.00200
C741        C  0.32458587  0.09179943  0.47311551    -0.03800
C742        C  0.28810197  0.07543898  0.49615991     0.03200
C743        C  0.21817912  0.16977603  0.52511722     0.10100
C744        C  0.28193203  0.20144066  0.46319166     0.36000
C745        C  0.27868649  0.03219800  0.49785090     0.39400
C746        C  0.22186584  0.19057849  0.57043062    -0.04200
C747        C  0.18682958  0.20877559  0.59390337     0.03000
C748        C  0.14783402  0.21355594  0.56928337    -0.03800
C749        C  0.14398426  0.18959248  0.52450396     0.00000
C750        C  0.17870947  0.16851478  0.50297436    -0.02600
C751        C  0.26217337  0.19217827  0.59396034     0.36700
C752        C  0.10410891  0.18218297  0.50173937     0.40300
C753        C  0.19011100  0.21421922  0.64602963     0.39400
C754        C  0.17387876  0.14499141  0.45754784     0.36400
C755        C  0.22306742  0.08471193  0.54419221     0.37100
C756        C  0.35140900  0.15488988  0.43388507     0.40300
N757        N  0.19385171  0.21682227  0.68778241    -0.37800
N758        N  0.29447916  0.19382442  0.61219586    -0.39300
N759        N  0.07282855  0.17522211  0.48259746    -0.37100
N760        N  0.17009507  0.12617043  0.42135419    -0.39500
N761        N  0.27842969  0.23487144  0.45116913    -0.39300
N762        N  0.37487327  0.17244174  0.41111298    -0.36900
N763        N  0.26809993  0.99851106  0.50051808    -0.37900
N764        N  0.19694539  0.07159590  0.56735129    -0.39600
C765        C  0.96904686  0.12110346  0.33486065    -0.04500
C766        C  0.95743635  0.14621228  0.29660135     0.09600
C767        C  0.94933192  0.18816376  0.30698152    -0.01900
C768        C  0.95530666  0.20563696  0.35418799    -0.00200
C769        C  0.96846259  0.18095318  0.39288159    -0.03800
C770        C  0.97484688  0.13822400  0.38254384     0.03200
C771        C  0.95851926  0.13060638  0.24431420     0.10100
C772        C  0.93410365  0.21346086  0.26865226     0.36000
C773        C  0.98910652  0.11166366  0.42015308     0.39400
C774        C  0.92174250  0.12624885  0.21655919    -0.04200
C775        C  0.92318301  0.12728089  0.16518251     0.03000
C776        C  0.96167472  0.13042346  0.14154372    -0.03800
C777        C  0.99809226  0.12449101  0.16914602     0.00000
C778        C  0.99684620  0.12710613  0.22027051    -0.02600
C779        C  0.88251535  0.12318916  0.24117601     0.36700
C780        C  0.03728669  0.11833515  0.14470562     0.40300
C781        C  0.88513920  0.12869197  0.13730098     0.39400
C782        C  0.03512037  0.13029497  0.24783932     0.36400
C783        C  0.97452183  0.07742043  0.32502431     0.37100
C784        C  0.94779706  0.24933221  0.36199963     0.40300
N785        N  0.85465726  0.12966987  0.11514941    -0.37800
N786        N  0.85130996  0.12022639  0.26103227    -0.39300
N787        N  0.06865099  0.11242521  0.12560327    -0.37100
N788        N  0.06558622  0.13335514  0.26988199    -0.39500
N789        N  0.92092313  0.23298883  0.23808027    -0.39300
N790        N  0.94207554  0.28428043  0.36768297    -0.36900
N791        N  0.00065197  0.09032870  0.44993719    -0.37900
N792        N  0.97850718  0.04248599  0.31718883    -0.39600
C793        C  0.01232875  0.38115053  0.70187944    -0.04500
C794        C  0.01941681  0.41863801  0.68052394     0.09600
C795        C  0.02095356  0.42003782  0.62928178    -0.01900
C796        C  0.00945913  0.38594278  0.59983133    -0.00200
C797        C  0.00130254  0.34828254  0.62097810    -0.03800
C798        C  0.00557527  0.34559554  0.67226460     0.03200
C799        C  0.01628457  0.45757795  0.71019833     0.10100
C800        C  0.03404658  0.45621208  0.60532527     0.36000
C801        C  0.00418726  0.30595349  0.69385525     0.39400
C802        C  0.05090737  0.48307093  0.71409505    -0.04200
C803        C  0.04773486  0.52296144  0.69663612     0.03000
C804        C  0.01004448  0.53474752  0.67457659    -0.03800
C805        C  0.97359636  0.51448021  0.68824908     0.00000
C806        C  0.97725314  0.47637319  0.70960748    -0.02600
C807        C  0.08885346  0.46742233  0.73444015     0.36700
C808        C  0.93299267  0.53025636  0.67684840     0.40300
C809        C  0.08298376  0.55002560  0.69889175     0.39400
C810        C  0.94117810  0.45366033  0.72357719     0.36400
C811        C  0.01140505  0.38014167  0.75426251     0.37100
C812        C  0.00434359  0.39098914  0.54801386     0.40300
N813        N  0.11119574  0.57159778  0.70189940    -0.37800
N814        N  0.11900814  0.45494836  0.75147270    -0.39300
N815        N  0.89992896  0.54224539  0.66920188    -0.37100
N816        N  0.91247265  0.43564173  0.73528600    -0.39500
N817        N  0.04542573  0.48271937  0.58246654    -0.39300
N818        N  0.99958081  0.39564973  0.50701394    -0.36900
N819        N  0.00291246  0.27252045  0.70622357    -0.37900
N820        N  0.01087160  0.38136275  0.79620491    -0.39600
C821        C  0.62750927  0.05876626  0.21816797    -0.04500
C822        C  0.59659019  0.07788612  0.24662921     0.09600
C823        C  0.56750999  0.10260742  0.22340651    -0.01900
C824        C  0.56488663  0.10303400  0.17178525    -0.00200
C825        C  0.59705758  0.08450216  0.14155840    -0.03800
C826        C  0.63042470  0.06593820  0.16799916     0.03200
C827        C  0.59806912  0.07634051  0.30164042     0.10100
C828        C  0.54356061  0.13138629  0.25341431     0.36000
C829        C  0.67048099  0.05749048  0.14660439     0.39400
C830        C  0.62828275  0.09852028  0.32808435    -0.04200
C831        C  0.63461933  0.09220397  0.37803295     0.03000
C832        C  0.60420179  0.07163309  0.40629074    -0.03800
C833        C  0.57271068  0.05024128  0.37862991     0.00000
C834        C  0.57188640  0.05044552  0.32700723    -0.02600
C835        C  0.65497037  0.12618356  0.30292580     0.36700
C836        C  0.54337309  0.02428464  0.40226513     0.40300
C837        C  0.67605257  0.10076125  0.39590629     0.39400
C838        C  0.54746478  0.02052052  0.29958473     0.36400
C839        C  0.65818044  0.03308460  0.24108367     0.37100
C840        C  0.52943234  0.12465688  0.15298706     0.40300
N841        N  0.70965020  0.10759344  0.40829859    -0.37800
N842        N  0.67606616  0.14836461  0.28289768    -0.39300
N843        N  0.51989690  0.00333039  0.42060555    -0.37100
N844        N  0.52970131  0.99523108  0.27772487    -0.39500
N845        N  0.52685722  0.15556202  0.27823133    -0.39300
N846        N  0.49999599  0.14216409  0.14111382    -0.36900
N847        N  0.70419610  0.05105472  0.13447381    -0.37900
N848        N  0.68291238  0.01235351  0.25839528    -0.39600
C849        C  0.61766042  0.96669483  0.53995340    -0.04500
C850        C  0.63111424  0.93590288  0.50608962     0.09600
C851        C  0.63989237  0.94839565  0.45898329    -0.01900
C852        C  0.63335514  0.98985679  0.44522839    -0.00200
C853        C  0.61583400  0.02111795  0.47807765    -0.03800
C854        C  0.61128828  0.00833320  0.52709357     0.03200
C855        C  0.63874612  0.89113477  0.52085510     0.10100
C856        C  0.65908290  0.91877651  0.42514851     0.36000
C857        C  0.60599396  0.03876250  0.56646061     0.39400
C858        C  0.61600997  0.85820347  0.49931031    -0.04200
C859        C  0.62264228  0.81704873  0.51318808     0.03000
C860        C  0.64828876  0.80738988  0.55393724    -0.03800
C861        C  0.67574417  0.83967463  0.56992808     0.00000
C862        C  0.67058591  0.88075343  0.55401886    -0.02600
C863        C  0.58675337  0.86610739  0.46070678     0.36700
C864        C  0.71059165  0.83098920  0.60119388     0.40300
C865        C  0.60868980  0.78448312  0.47982087     0.39400
C866        C  0.69871507  0.91251091  0.57157249     0.36400
C867        C  0.61317325  0.95570359  0.58963863     0.37100
C868        C  0.65156700  0.99976592  0.39948529     0.40300
N869        N  0.59896802  0.75890733  0.45187845    -0.37800
N870        N  0.56401273  0.87190000  0.42913291    -0.39300
N871        N  0.73888714  0.82512164  0.62592425    -0.37100
N872        N  0.72098377  0.93791699  0.58584128    -0.39500
N873        N  0.67436164  0.89523788  0.39818024    -0.39300
N874        N  0.66729957  0.00550192  0.36288946    -0.36900
N875        N  0.60285174  0.06287565  0.59815773    -0.37900
N876        N  0.61122049  0.94591201  0.62921726    -0.39600
C877        C  0.83612992  0.29565905  0.72262110    -0.04500
C878        C  0.84110439  0.25712220  0.74299128     0.09600
C879        C  0.84232748  0.22202371  0.71179689    -0.01900
C880        C  0.84328196  0.22562219  0.66071098    -0.00200
C881        C  0.83968376  0.26491442  0.63891792    -0.03800
C882        C  0.82975086  0.29887149  0.67224294     0.03200
C883        C  0.84160774  0.25403784  0.79755393     0.10100
C884        C  0.84220481  0.18184471  0.73258738     0.36000
C885        C  0.81352564  0.33817663  0.65763435     0.39400
C886        C  0.80749496  0.26838822  0.82452965    -0.04200
C887        C  0.81080460  0.27579261  0.87509719     0.03000
C888        C  0.84540251  0.26100329  0.90257054    -0.03800
C889        C  0.87903578  0.24319331  0.87410220     0.00000
C890        C  0.87724704  0.24128890  0.82246253    -0.02600
C891        C  0.76919200  0.27837205  0.79935341     0.36700
C892        C  0.91754765  0.22921854  0.89524124     0.40300
C893        C  0.78150757  0.30554786  0.89492896     0.39400
C894        C  0.91277132  0.22680576  0.79442574     0.36400
C895        C  0.83801106  0.33269419  0.75383238     0.37100
C896        C  0.84653796  0.18769045  0.63164155     0.40300
N897        N  0.75807787  0.33151250  0.90483665    -0.37800
N898        N  0.73890890  0.28664312  0.77928747    -0.39300
N899        N  0.94888431  0.21759288  0.91015610    -0.37100
N900        N  0.94084002  0.21494653  0.77193244    -0.39500
N901        N  0.84206013  0.14991392  0.74934947    -0.39300
N902        N  0.84931547  0.15656165  0.61017489    -0.36900
N903        N  0.80142334  0.37047311  0.64841675    -0.37900
N904        N  0.83962916  0.36225411  0.77841723    -0.39600
C905        C  0.85302442  0.47667876  0.54052958    -0.04500
C906        C  0.86080864  0.44059634  0.51217733     0.09600
C907        C  0.87562046  0.44487006  0.46498847    -0.01900
C908        C  0.87644652  0.48384025  0.44417261    -0.00200
C909        C  0.87613897  0.52115449  0.47409993    -0.03800
C910        C  0.86460041  0.51566305  0.52386770     0.03200
C911        C  0.85405781  0.39802635  0.53140770     0.10100
C912        C  0.88979228  0.40869565  0.43717547     0.36000
C913        C  0.86324522  0.54999377  0.55889795     0.39400
C914        C  0.82533395  0.37069455  0.50927252    -0.04200
C915        C  0.82289077  0.32907538  0.52277930     0.03000
C916        C  0.84582822  0.31457998  0.56362857    -0.03800
C917        C  0.87565218  0.34303164  0.58446640     0.00000
C918        C  0.87892811  0.38381711  0.56913249    -0.02600
C919        C  0.79805740  0.38569324  0.47179535     0.36700
C920        C  0.90058116  0.33215371  0.62577870     0.40300
C921        C  0.79967192  0.30168645  0.49037249     0.39400
C922        C  0.90702670  0.41228760  0.59363689     0.36400
C923        C  0.83282572  0.47376726  0.58706826     0.37100
C924        C  0.87080732  0.48229594  0.39229478     0.40300
N925        N  0.78103052  0.28081372  0.46338506    -0.37800
N926        N  0.77638219  0.39786924  0.44203778    -0.39300
N927        N  0.91748577  0.32419058  0.66122052    -0.37100
N928        N  0.92808976  0.43635583  0.61302859    -0.39500
N929        N  0.90159628  0.37988539  0.41544372    -0.39300
N930        N  0.86546150  0.47759182  0.35100880    -0.36900
N931        N  0.86155316  0.57719525  0.58709334    -0.37900
N932        N  0.81639747  0.47156625  0.62398082    -0.39600
C933        C  0.70241928  0.11665414  0.53864704    -0.04500
C934        C  0.70204987  0.15780728  0.52586594     0.09600
C935        C  0.66918203  0.17113018  0.49648494    -0.01900
C936        C  0.63743152  0.14368297  0.47997115    -0.00200
C937        C  0.63998717  0.09999671  0.48774779    -0.03800
C938        C  0.67621629  0.08753943  0.51465611     0.03200
C939        C  0.73853732  0.18578002  0.53881871     0.10100
C940        C  0.66915104  0.21318390  0.48092904     0.36000
C941        C  0.69342931  0.04641523  0.51111690     0.39400
C942        C  0.77821293  0.17788125  0.51904271    -0.04200
C943        C  0.81187341  0.20524598  0.52832179     0.03000
C944        C  0.80721757  0.24143550  0.55942878    -0.03800
C945        C  0.76550987  0.25048972  0.57464347     0.00000
C946        C  0.73296200  0.22185519  0.56761429    -0.02600
C947        C  0.78492217  0.14049646  0.48963662     0.36700
C948        C  0.75302289  0.29120357  0.59148708     0.40300
C949        C  0.85010262  0.19564202  0.50317140     0.39400
C950        C  0.69317120  0.22969465  0.59057251     0.36400
C951        C  0.73140615  0.10375228  0.57553482     0.37100
C952        C  0.60676006  0.16075798  0.44768764     0.40300
N953        N  0.87984248  0.18662860  0.48203247    -0.37800
N954        N  0.79070733  0.11033865  0.46708755    -0.39300
N955        N  0.73879896  0.32293494  0.60210018    -0.37100
N956        N  0.66158864  0.23615064  0.60901545    -0.39500
N957        N  0.66915449  0.24665786  0.46857046    -0.39300
N958        N  0.58319590  0.17533170  0.42156919    -0.36900
N959        N  0.70928384  0.01445460  0.50875345    -0.37900
N960        N  0.75402190  0.09360592  0.60549637    -0.39600
C961        C  0.44373238  0.20046030  0.81342784    -0.04500
C962        C  0.47805538  0.22338696  0.79818812     0.09600
C963        C  0.50475604  0.24069443  0.83435289    -0.01900
C964        C  0.50073185  0.23032067  0.88363248    -0.00200
C965        C  0.46778614  0.20533140  0.89838510    -0.03800
C966        C  0.43769180  0.19310045  0.86314109     0.03200
C967        C  0.48721662  0.22599124  0.74423486     0.10100
C968        C  0.53696999  0.26860749  0.82075996     0.36000
C969        C  0.40143577  0.17059366  0.87720652     0.39400
C970        C  0.45818202  0.24349837  0.71229148    -0.04200
C971        C  0.46049153  0.23491472  0.66151441     0.03000
C972        C  0.49322876  0.21076259  0.64167867    -0.03800
C973        C  0.52673503  0.20106449  0.67271363     0.00000
C974        C  0.52303531  0.20704208  0.72375391    -0.02600
C975        C  0.42544455  0.26970719  0.73191656     0.36700
C976        C  0.56451343  0.18358591  0.65235037     0.40300
C977        C  0.42932358  0.25111304  0.62946433     0.39400
C978        C  0.55545797  0.19228166  0.75522691     0.36400
C979        C  0.41562209  0.18213882  0.77764332     0.37100
C980        C  0.53116115  0.24474556  0.91904032     0.40300
N981        N  0.40469864  0.26433901  0.60367189    -0.37800
N982        N  0.39948619  0.29083986  0.74764277    -0.39300
N983        N  0.59467375  0.17010942  0.63558449    -0.37100
N984        N  0.58139224  0.18125444  0.78081937    -0.39500
N985        N  0.56280458  0.29078490  0.80995814    -0.39300
N986        N  0.55558751  0.25602709  0.94726460    -0.36900
N987        N  0.37223148  0.15310578  0.88846379    -0.37900
N988        N  0.39314583  0.16760843  0.74914265    -0.39600
C989        C  0.53968207  0.01483491  0.69879194    -0.04500
C990        C  0.50823638  0.98598981  0.68931156     0.09600
C991        C  0.46665711  0.99872426  0.69622781    -0.01900
C992        C  0.45735845  0.04082495  0.69551106    -0.00200
C993        C  0.48921871  0.06725772  0.68297147    -0.03800
C994        C  0.52928505  0.05656672  0.69838334     0.03200
C995        C  0.51725662  0.94779031  0.66022398     0.10100
C996        C  0.43370370  0.96942666  0.70071511     0.36000
C997        C  0.56111033  0.08702804  0.70521565     0.39400
C998        C  0.52707765  0.91203211  0.68338638    -0.04200
C999        C  0.52155041  0.87391273  0.65922622     0.03000
C1000       C  0.51494972  0.87163280  0.60791773    -0.03800
C1001       C  0.51223957  0.90852586  0.58292439     0.00000
C1002       C  0.51217941  0.94643449  0.60935736    -0.02600
C1003       C  0.54566680  0.91505672  0.73087662     0.36700
C1004       C  0.50397406  0.90812302  0.53113547     0.40300
C1005       C  0.52343015  0.83759925  0.68788729     0.39400
C1006       C  0.50247961  0.98334031  0.58429309     0.36400
C1007       C  0.58196850  0.00239375  0.70779828     0.37100
C1008       C  0.41520756  0.05583520  0.69919906     0.40300
N1009       N  0.52394886  0.80825973  0.71008839    -0.37800
N1010       N  0.56155614  0.91829443  0.76832381    -0.39300
N1011       N  0.49624820  0.90850537  0.49019040    -0.37100
N1012       N  0.49238167  0.01121095  0.56252766    -0.39500
N1013       N  0.40627871  0.94715187  0.70423026    -0.39300
N1014       N  0.38144177  0.06762012  0.70261773    -0.36900
N1015       N  0.58842480  0.10927634  0.71160451    -0.37900
N1016       N  0.61598136  0.99387150  0.71643322    -0.39600
loop_ 
_geom_bond_atom_site_label_1 
_geom_bond_atom_site_label_2 
_geom_bond_distance 
_geom_bond_site_symmetry_2 
_ccdc_geom_bond_type 
O1            C4   1.266       .  A
O1           Cd6   2.575       .  S
C2           O11   1.274       .  A
C2            O7   1.272       .  A
C2           C30   1.585       .  S
O3            C9   1.264       .  A
O3           Cd6   2.483       .  S
C4           O12   1.273       .  A
C4           C15   1.594       .  S
C5           O10   1.265       .  A
C5            O8   1.268       .  A
C5          C972   1.510       .  S
Cd6          O13   2.436       .  S
Cd6          O12   2.573       .  S
Cd6          O11   2.616       .  S
Cd6           O7   2.511       .  S
Cd6          O10   2.495       .  S
Cd6           O8   2.504       .  S
C9           O13   1.260       .  A
C9          C993   1.480       .  S
C14          C19   1.584       .  S
C14         C881   1.605       .  S
C14         C916   1.609       .  S
C14         C944   1.606       .  S
C15         C832   1.601       .  S
C15         C853   1.631       .  S
C15         C937   1.618       .  S
O16          C19   1.282       .  A
O16         Cd21   2.595       .  S
C17          O26   1.266       .  A
C17          O22   1.286       .  A
C17          C29   1.594       .  S
O18          C24   1.272       .  A
O18         Cd21   2.442       .  S
C19          O27   1.275       .  A
C20          O25   1.280       .  A
C20          O23   1.270       .  A
C20         C797   1.493   1_655  S
Cd21         O28   2.489       .  S
Cd21         O27   2.499       .  S
Cd21         O26   2.468   1_655  S
Cd21         O22   2.613   1_655  S
Cd21         O25   2.390       .  S
Cd21         O23   2.274       .  S
C24          O28   1.276       .  A
C24         C769   1.516       .  S
C29         C692   1.622       .  S
C29         C713   1.637       .  S
C29         C748   1.612       .  S
C30         C636   1.603       .  S
C30         C657   1.604       .  S
C30         C741   1.633       .  S
O31          C34   1.285       .  A
O31         Cd36   2.645       .  S
C32          O41   1.259       .  A
C32          O37   1.276       .  A
C32          C45   1.589       .  S
O33          C39   1.274       .  A
O33         Cd36   2.406       .  S
C34          O42   1.269       .  A
C34          C59   1.595       .  S
C35          O40   1.264       .  A
C35          O38   1.278       .  A
C35        C1000   1.491       .  S
Cd36         O43   2.452       .  S
Cd36         O42   2.509       .  S
Cd36         O41   2.543       .  S
Cd36         O37   2.676       .  S
Cd36         O40   2.279       .  S
Cd36         O38   2.467       .  S
C39          O43   1.274       .  A
C39         C608   1.483       .  S
C44          C49   1.572       .  S
C44         C545   1.591       .  S
C44         C573   1.613       .  S
C44         C909   1.618       .  S
C45         C517   1.628       .  S
C45         C580   1.613       .  S
C45         C860   1.616       .  S
O46          C49   1.277       .  A
O46         Cd51   2.600   1_655  S
C47          O56   1.268       .  A
C47          O52   1.273       .  A
C47          C60   1.604       .  S
O48          C54   1.259   1_655  A
O48         Cd51   2.446   1_655  S
C49          O57   1.267       .  A
C50          O55   1.262       .  A
C50          O53   1.265   1_455  A
C50         C804   1.484       .  S
Cd51         O58   2.522       .  S
Cd51         O57   2.503   1_455  S
Cd51         O56   2.578       .  S
Cd51         O52   2.593       .  S
Cd51         O55   2.482       .  S
Cd51         O53   2.445   1_455  S
C54          O58   1.269       .  A
C54         C496   1.498       .  S
C59         C440   1.599       .  S
C59         C461   1.601       .  S
C59         C664   1.602       .  S
C60         C405   1.594       .  S
C60         C468   1.618       .  S
C60         C720   1.619       .  S
O61          C64   1.281       .  A
O61         Cd66   2.605       .  S
C62          O71   1.269       .  A
C62          O67   1.280       .  A
C62          C90   1.571       .  S
O63          C69   1.275       .  A
O63         Cd66   2.384   1_554  S
C64          O72   1.273   1_556  A
C64          C75   1.586       .  S
C65          O70   1.271       .  A
C65          O68   1.279       .  A
C65         C384   1.490       .  S
Cd66         O73   2.440   1_556  S
Cd66         O72   2.497   1_556  S
Cd66         O71   2.469       .  S
Cd66         O67   2.606       .  S
Cd66         O70   2.325       .  S
Cd66         O68   2.380       .  S
C69          O73   1.275       .  A
C69         C601   1.487       .  S
C74          C79   1.587       .  S
C74         C328   1.616       .  S
C74         C356   1.607       .  S
C74         C552   1.593       .  S
C75         C293   1.609       .  S
C75         C349   1.602       .  S
C75         C524   1.625       .  S
O76          C79   1.279       .  A
O76         Cd81   2.551       .  S
C77          O86   1.254       .  A
C77          O82   1.269       .  A
C77          C89   1.558       .  S
O78          C84   1.263       .  A
O78         Cd81   2.273   1_455  S
C79          O87   1.269       .  A
C80          O85   1.278       .  A
C80          O83   1.272   1_455  A
C80         C489   1.502       .  S
Cd81         O88   2.489   1_655  S
Cd81         O87   2.483       .  S
Cd81         O86   2.462   1_655  S
Cd81         O82   2.661   1_655  S
Cd81         O85   2.482   1_654  S
Cd81         O83   2.447   1_554  S
C84          O88   1.283       .  A
C84         C265   1.490       .  S
C89         C209   1.635       .  S
C89         C244   1.621       .  S
C89         C412   1.623       .  S
C90         C181   1.635       .  S
C90         C237   1.618       .  S
C90         C433   1.603       .  S
O91          C94   1.276       .  A
O91         Cd96   2.609       .  S
C92         O101   1.272       .  A
C92          O97   1.271       .  A
C92         C105   1.589       .  S
O93          C99   1.259       .  A
O93         Cd96   2.444   1_556  S
C94         O102   1.272       .  A
C94         C119   1.602       .  S
C95         O100   1.269       .  A
C95          O98   1.262       .  A
C95         C965   1.510       .  S
Cd96        O103   2.489   1_554  S
Cd96        O102   2.564       .  S
Cd96        O101   2.616       .  S
Cd96         O97   2.607       .  S
Cd96        O100   2.518   1_554  S
Cd96         O98   2.485   1_554  S
C99         O103   1.264       .  A
C99         C377   1.483       .  S
C104        C107   1.589       .  S
C104        C153   1.641       .  S
C104        C321   1.600       .  S
C104        C888   1.600       .  S
C105        C160   1.623       .  S
C105        C300   1.625       .  S
C105        C825   1.613       .  S
O106        C109   1.263   1_554  A
O106       Cd111   2.592   1_455  S
C107        O116   1.275       .  A
C107        O112   1.272       .  A
O108        C114   1.274       .  A
O108       Cd111   2.614       .  S
C109        O117   1.280       .  A
C109        C120   1.603       .  S
C110        O115   1.259       .  A
C110        O113   1.267       .  A
C110        C272   1.477       .  S
Cd111       O118   2.393       .  S
Cd111       O117   2.700   1_654  S
Cd111       O116   2.545   1_554  S
Cd111       O112   2.628   1_554  S
Cd111       O115   2.396       .  S
Cd111       O113   2.524       .  S
C114        O118   1.252       .  A
C114        C776   1.498       .  S
C119        C125   1.621       .  S
C119        C188   1.621       .  S
C119        C629   1.605       .  S
C120        C132   1.629       .  S
C120        C216   1.634       .  S
C120        C685   1.599       .  S
C121        C122   1.413       .  A
C121        C126   1.431       .  A
C121        C139   1.453       .  S
C122        C127   1.537       .  S
C122        C123   1.407       .  A
C123        C124   1.424       .  A
C123        C128   1.453   1_554  S
C124        C125   1.449       .  A
C124        C140   1.451       .  S
C125        C126   1.444       .  A
C126        C129   1.450       .  S
C127        C130   1.402   1_554  A
C127        C134   1.411       .  A
C128        N145   1.157       .  T
C129        N147   1.158       .  T
C130        C131   1.426       .  A
C130        C135   1.454       .  S
C131        C132   1.449       .  A
C131        C137   1.441       .  S
C132        C133   1.442   1_556  A
C133        C134   1.432       .  A
C133        C136   1.435       .  S
C134        C138   1.452       .  S
C135        N142   1.157       .  T
C136        N143   1.153       .  T
C137        N141   1.158       .  T
C138        N144   1.157       .  T
C139        N148   1.157       .  T
C140        N146   1.158       .  T
C149        C150   1.405       .  A
C149        C154   1.433   1_554  A
C149        C167   1.457       .  S
C150        C155   1.547       .  S
C150        C151   1.412   1_554  A
C151        C152   1.436       .  A
C151        C156   1.449       .  S
C152        C153   1.444       .  A
C152        C168   1.450       .  S
C153        C154   1.461       .  A
C154        C157   1.448       .  S
C155        C158   1.416   1_554  A
C155        C162   1.413       .  A
C156        N173   1.157       .  T
C157        N175   1.159   1_556  T
C158        C159   1.437   1_556  A
C158        C163   1.450       .  S
C159        C160   1.443       .  A
C159        C165   1.450   1_554  S
C160        C161   1.442       .  A
C161        C162   1.428       .  A
C161        C164   1.449       .  S
C162        C166   1.453       .  S
C163        N170   1.157       .  T
C164        N171   1.157       .  T
C165        N169   1.157       .  T
C166        N172   1.158       .  T
C167        N176   1.157       .  T
C168        N174   1.158       .  T
C177        C178   1.415       .  A
C177        C182   1.437   1_554  A
C177        C195   1.452       .  S
C178        C183   1.545       .  S
C178        C179   1.406   1_554  A
C179        C180   1.422       .  A
C179        C184   1.447       .  S
C180        C181   1.443       .  A
C180        C196   1.442       .  S
C181        C182   1.442       .  A
C182        C185   1.440   1_556  S
C183        C186   1.410       .  A
C183        C190   1.419   1_554  A
C184        N201   1.155       .  T
C185        N203   1.155       .  T
C186        C187   1.423       .  A
C186        C191   1.452       .  S
C187        C188   1.443   1_565  A
C187        C193   1.444       .  S
C188        C189   1.438       .  A
C189        C190   1.428   1_544  A
C189        C192   1.451   1_554  S
C190        C194   1.451       .  S
C191        N198   1.157       .  T
C192        N199   1.157       .  T
C193        N197   1.156   1_565  T
C194        N200   1.157       .  T
C195        N204   1.158       .  T
C196        N202   1.155       .  T
C205        C206   1.418       .  A
C205        C210   1.432       .  A
C205        C223   1.451   1_554  S
C206        C211   1.558       .  S
C206        C207   1.415       .  A
C207        C208   1.423       .  A
C207        C212   1.450       .  S
C208        C209   1.441       .  A
C208        C224   1.441       .  S
C209        C210   1.453       .  A
C210        C213   1.451   1_554  S
C211        C214   1.412   1_554  A
C211        C218   1.416       .  A
C212        N229   1.157       .  T
C213        N231   1.158       .  T
C214        C215   1.435       .  A
C214        C219   1.455       .  S
C215        C216   1.452       .  A
C215        C221   1.445       .  S
C216        C217   1.440   1_556  A
C217        C218   1.433       .  A
C217        C220   1.449       .  S
C218        C222   1.444       .  S
C219        N226   1.157       .  T
C220        N227   1.157       .  T
C221        N225   1.156       .  T
C222        N228   1.155       .  T
C223        N232   1.158       .  T
C224        N230   1.158       .  T
C233        C234   1.411   1_556  A
C233        C238   1.419       .  A
C233        C251   1.453       .  S
C234        C239   1.544       .  S
C234        C235   1.421       .  A
C235        C236   1.438       .  A
C235        C240   1.448       .  S
C236        C237   1.436   1_554  A
C236        C252   1.449       .  S
C237        C238   1.441       .  A
C238        C241   1.450       .  S
C239        C242   1.412       .  A
C239        C246   1.410       .  A
C240        N257   1.158       .  T
C241        N259   1.158       .  T
C242        C243   1.433       .  A
C242        C247   1.455       .  S
C243        C244   1.451       .  A
C243        C249   1.450       .  S
C244        C245   1.438       .  A
C245        C246   1.430       .  A
C245        C248   1.445       .  S
C246        C250   1.451       .  S
C247        N254   1.158   1_554  T
C248        N255   1.157       .  T
C249        N253   1.158       .  T
C250        N256   1.157       .  T
C251        N260   1.157       .  T
C252        N258   1.157       .  T
C261        C262   1.421       .  A
C261        C266   1.408       .  A
C261        C279   1.438   1_455  S
C262        C267   1.488   1_455  S
C262        C263   1.393       .  A
C263        C264   1.405       .  A
C263        C268   1.451       .  S
C264        C265   1.428       .  A
C264        C280   1.437       .  S
C265        C266   1.401       .  A
C266        C269   1.455   1_455  S
C267        C270   1.405   1_655  A
C267        C274   1.405       .  A
C268        N285   1.157       .  T
C269        N287   1.157   1_554  T
C270        C271   1.403       .  A
C270        C275   1.444       .  S
C271        C272   1.410   1_455  A
C271        C277   1.448       .  S
C272        C273   1.406       .  A
C273        C274   1.405       .  A
C273        C276   1.444       .  S
C274        C278   1.448       .  S
C275        N282   1.158       .  T
C276        N283   1.157       .  T
C277        N281   1.157       .  T
C278        N284   1.157       .  T
C279        N288   1.153       .  T
C280        N286   1.153       .  T
C289        C290   1.410       .  A
C289        C294   1.430       .  A
C289        C307   1.451       .  S
C290        C295   1.529       .  S
C290        C291   1.404   1_554  A
C291        C292   1.416       .  A
C291        C296   1.445       .  S
C292        C293   1.430       .  A
C292        C308   1.437       .  S
C293        C294   1.446   1_556  A
C294        C297   1.450       .  S
C295        C298   1.404       .  A
C295        C302   1.406       .  A
C296        N313   1.155       .  T
C297        N315   1.158       .  T
C298        C299   1.427   1_565  A
C298        C303   1.456       .  S
C299        C300   1.451       .  A
C299        C305   1.444       .  S
C300        C301   1.444       .  A
C301        C302   1.426   1_545  A
C301        C304   1.450       .  S
C302        C306   1.450       .  S
C303        N310   1.157   1_554  T
C304        N311   1.156       .  T
C305        N309   1.157       .  T
C306        N312   1.158       .  T
C307        N316   1.157       .  T
C308        N314   1.152       .  T
C317        C318   1.414       .  A
C317        C322   1.421       .  A
C317        C335   1.451       .  S
C318        C323   1.525       .  S
C318        C319   1.407   1_554  A
C319        C320   1.422       .  A
C319        C324   1.454       .  S
C320        C321   1.443       .  A
C320        C336   1.450       .  S
C321        C322   1.432   1_556  A
C322        C325   1.453       .  S
C323        C326   1.399       .  A
C323        C330   1.404       .  A
C324        N341   1.157       .  T
C325        N343   1.157       .  T
C326        C327   1.414       .  A
C326        C331   1.439       .  S
C327        C328   1.443       .  A
C327        C333   1.450       .  S
C328        C329   1.443       .  A
C329        C330   1.428       .  A
C329        C332   1.442       .  S
C330        C334   1.451   1_554  S
C331        N338   1.152       .  T
C332        N339   1.155       .  T
C333        N337   1.157       .  T
C334        N340   1.157       .  T
C335        N344   1.158       .  T
C336        N342   1.158       .  T
C345        C346   1.402   1_556  A
C345        C350   1.421       .  A
C345        C363   1.455       .  S
C346        C351   1.520       .  S
C346        C347   1.411       .  A
C347        C348   1.423       .  A
C347        C352   1.450       .  S
C348        C349   1.436   1_554  A
C348        C364   1.449       .  S
C349        C350   1.443       .  A
C350        C353   1.446       .  S
C351        C354   1.400       .  A
C351        C358   1.407   1_554  A
C352        N369   1.157       .  T
C353        N371   1.158       .  T
C354        C355   1.419       .  A
C354        C359   1.457       .  S
C355        C356   1.452       .  A
C355        C361   1.448       .  S
C356        C357   1.443       .  A
C357        C358   1.428   1_554  A
C357        C360   1.450   1_554  S
C358        C362   1.451       .  S
C359        N366   1.157       .  T
C360        N367   1.158       .  T
C361        N365   1.157       .  T
C362        N368   1.157       .  T
C363        N372   1.157       .  T
C364        N370   1.157       .  T
C373        C374   1.420   1_545  A
C373        C378   1.405       .  A
C373        C391   1.445   1_545  S
C374        C379   1.488       .  S
C374        C375   1.415       .  A
C375        C376   1.404   1_565  A
C375        C380   1.448       .  S
C376        C377   1.402       .  A
C376        C392   1.445       .  S
C377        C378   1.403       .  A
C378        C381   1.450       .  S
C379        C382   1.415       .  A
C379        C386   1.407       .  A
C380        N397   1.157       .  T
C381        N399   1.157       .  T
C382        C383   1.404       .  A
C382        C387   1.449       .  S
C383        C384   1.412       .  A
C383        C389   1.450       .  S
C384        C385   1.421       .  A
C385        C386   1.401       .  A
C385        C388   1.453       .  S
C386        C390   1.445       .  S
C387        N394   1.154   1_565  T
C388        N395   1.155       .  T
C389        N393   1.157   1_556  T
C390        N396   1.156       .  T
C391        N400   1.158       .  T
C392        N398   1.157       .  T
C401        C402   1.409       .  A
C401        C406   1.413       .  A
C401        C419   1.452       .  S
C402        C407   1.535       .  S
C402        C403   1.424       .  A
C403        C404   1.423       .  A
C403        C408   1.439       .  S
C404        C405   1.415       .  A
C404        C420   1.448       .  S
C405        C406   1.436       .  A
C406        C409   1.447       .  S
C407        C410   1.417       .  A
C407        C414   1.404       .  A
C408        N425   1.154       .  T
C409        N427   1.156       .  T
C410        C411   1.428       .  A
C410        C415   1.453       .  S
C411        C412   1.435       .  A
C411        C417   1.449       .  S
C412        C413   1.458       .  A
C413        C414   1.429       .  A
C413        C416   1.452       .  S
C414        C418   1.455       .  S
C415        N422   1.158       .  T
C416        N423   1.159       .  T
C417        N421   1.157       .  T
C418        N424   1.157       .  T
C419        N428   1.157       .  T
C420        N426   1.156       .  T
C429        C430   1.401       .  A
C429        C434   1.416       .  A
C429        C447   1.454       .  S
C430        C435   1.502       .  S
C430        C431   1.396       .  A
C431        C432   1.415       .  A
C431        C436   1.459       .  S
C432        C433   1.456       .  A
C432        C448   1.445       .  S
C433        C434   1.443       .  A
C434        C437   1.448       .  S
C435        C438   1.398       .  A
C435        C442   1.405       .  A
C436        N453   1.157       .  T
C437        N455   1.156       .  T
C438        C439   1.411       .  A
C438        C443   1.457       .  S
C439        C440   1.452       .  A
C439        C445   1.451       .  S
C440        C441   1.439       .  A
C441        C442   1.414       .  A
C441        C444   1.453       .  S
C442        C446   1.453       .  S
C443        N450   1.157       .  T
C444        N451   1.158       .  T
C445        N449   1.158       .  T
C446        N452   1.157       .  T
C447        N456   1.158       .  T
C448        N454   1.159       .  T
C457        C458   1.415       .  A
C457        C462   1.429       .  A
C457        C475   1.449       .  S
C458        C463   1.525       .  S
C458        C459   1.401       .  A
C459        C460   1.414       .  A
C459        C464   1.454       .  S
C460        C461   1.441       .  A
C460        C476   1.445       .  S
C461        C462   1.434       .  A
C462        C465   1.447       .  S
C463        C466   1.403       .  A
C463        C470   1.406       .  A
C464        N481   1.157       .  T
C465        N483   1.157       .  T
C466        C467   1.425       .  A
C466        C471   1.453       .  S
C467        C468   1.450       .  A
C467        C473   1.449       .  S
C468        C469   1.452       .  A
C469        C470   1.422       .  A
C469        C472   1.455       .  S
C470        C474   1.455       .  S
C471        N478   1.157       .  T
C472        N479   1.158       .  T
C473        N477   1.158       .  T
C474        N480   1.157       .  T
C475        N484   1.156       .  T
C476        N482   1.157       .  T
C485        C486   1.415   1_655  A
C485        C490   1.413       .  A
C485        C503   1.447       .  S
C486        C491   1.513       .  S
C486        C487   1.411       .  A
C487        C488   1.419       .  A
C487        C492   1.450       .  S
C488        C489   1.421       .  A
C488        C504   1.450       .  S
C489        C490   1.414   1_455  A
C490        C493   1.451       .  S
C491        C494   1.413   1_455  A
C491        C498   1.413       .  A
C492        N509   1.157       .  T
C493        N511   1.157       .  T
C494        C495   1.416       .  A
C494        C499   1.450       .  S
C495        C496   1.417   1_655  A
C495        C501   1.450       .  S
C496        C497   1.419       .  A
C497        C498   1.415       .  A
C497        C500   1.451       .  S
C498        C502   1.450       .  S
C499        N506   1.157       .  T
C500        N507   1.157       .  T
C501        N505   1.157       .  T
C502        N508   1.157       .  T
C503        N512   1.155       .  T
C504        N510   1.158       .  T
C513        C514   1.402       .  A
C513        C518   1.420       .  A
C513        C531   1.438       .  S
C514        C519   1.535       .  S
C514        C515   1.407       .  A
C515        C516   1.432       .  A
C515        C520   1.451       .  S
C516        C517   1.444       .  A
C516        C532   1.442       .  S
C517        C518   1.431       .  A
C518        C521   1.436       .  S
C519        C522   1.404       .  A
C519        C526   1.406       .  A
C520        N537   1.157       .  T
C521        N539   1.153       .  T
C522        C523   1.429       .  A
C522        C527   1.451       .  S
C523        C524   1.444       .  A
C523        C529   1.447       .  S
C524        C525   1.452       .  A
C525        C526   1.430       .  A
C525        C528   1.447       .  S
C526        C530   1.455       .  S
C527        N534   1.157       .  T
C528        N535   1.158       .  T
C529        N533   1.157       .  T
C530        N536   1.157       .  T
C531        N540   1.151       .  T
C532        N538   1.155       .  T
C541        C542   1.402       .  A
C541        C546   1.405       .  A
C541        C559   1.453       .  S
C542        C547   1.505       .  S
C542        C543   1.410       .  A
C543        C544   1.425       .  A
C543        C548   1.447       .  S
C544        C545   1.429       .  A
C544        C560   1.448       .  S
C545        C546   1.433       .  A
C546        C549   1.449       .  S
C547        C550   1.407       .  A
C547        C554   1.407       .  A
C548        N565   1.156       .  T
C549        N567   1.158       .  T
C550        C551   1.412       .  A
C550        C555   1.451       .  S
C551        C552   1.429       .  A
C551        C557   1.450       .  S
C552        C553   1.442       .  A
C553        C554   1.417       .  A
C553        C556   1.453       .  S
C554        C558   1.451       .  S
C555        N562   1.157       .  T
C556        N563   1.157       .  T
C557        N561   1.158       .  T
C558        N564   1.157       .  T
C559        N568   1.157       .  T
C560        N566   1.156       .  T
C569        C570   1.413       .  A
C569        C574   1.427       .  A
C569        C587   1.453       .  S
C570        C575   1.531       .  S
C570        C571   1.405       .  A
C571        C572   1.424       .  A
C571        C576   1.453       .  S
C572        C573   1.442       .  A
C572        C588   1.448       .  S
C573        C574   1.440       .  A
C574        C577   1.446       .  S
C575        C578   1.404       .  A
C575        C582   1.412       .  A
C576        N593   1.157       .  T
C577        N595   1.157       .  T
C578        C579   1.424       .  A
C578        C583   1.456       .  S
C579        C580   1.452       .  A
C579        C585   1.448       .  S
C580        C581   1.441       .  A
C581        C582   1.430       .  A
C581        C584   1.452       .  S
C582        C586   1.450       .  S
C583        N590   1.157       .  T
C584        N591   1.157       .  T
C585        N589   1.159       .  T
C586        N592   1.158       .  T
C587        N596   1.157       .  T
C588        N594   1.157       .  T
C597        C598   1.409       .  A
C597        C602   1.405       .  A
C597        C615   1.452       .  S
C598        C603   1.494       .  S
C598        C599   1.410       .  A
C599        C600   1.414       .  A
C599        C604   1.450       .  S
C600        C601   1.418       .  A
C600        C616   1.451       .  S
C601        C602   1.415       .  A
C602        C605   1.452       .  S
C603        C606   1.410       .  A
C603        C610   1.411       .  A
C604        N621   1.157       .  T
C605        N623   1.157       .  T
C606        C607   1.407       .  A
C606        C611   1.451       .  S
C607        C608   1.414       .  A
C607        C613   1.452       .  S
C608        C609   1.414       .  A
C609        C610   1.413       .  A
C609        C612   1.450       .  S
C610        C614   1.450       .  S
C611        N618   1.157       .  T
C612        N619   1.158       .  T
C613        N617   1.157       .  T
C614        N620   1.157       .  T
C615        N624   1.157       .  T
C616        N622   1.158       .  T
C625        C626   1.401       .  A
C625        C630   1.419       .  A
C625        C643   1.456       .  S
C626        C631   1.524       .  S
C626        C627   1.410       .  A
C627        C628   1.423       .  A
C627        C632   1.446       .  S
C628        C629   1.438       .  A
C628        C644   1.450       .  S
C629        C630   1.450       .  A
C630        C633   1.446       .  S
C631        C634   1.406       .  A
C631        C638   1.402       .  A
C632        N649   1.155       .  T
C633        N651   1.156       .  T
C634        C635   1.421       .  A
C634        C639   1.455       .  S
C635        C636   1.440       .  A
C635        C641   1.445       .  S
C636        C637   1.445       .  A
C637        C638   1.420       .  A
C637        C640   1.448       .  S
C638        C642   1.446       .  S
C639        N646   1.157       .  T
C640        N647   1.157       .  T
C641        N645   1.157       .  T
C642        N648   1.155       .  T
C643        N652   1.158       .  T
C644        N650   1.157       .  T
C653        C654   1.411       .  A
C653        C658   1.425       .  A
C653        C671   1.454       .  S
C654        C659   1.528       .  S
C654        C655   1.414       .  A
C655        C656   1.417   1_565  A
C655        C660   1.452       .  S
C656        C657   1.433       .  A
C656        C672   1.454       .  S
C657        C658   1.442   1_545  A
C658        C661   1.450       .  S
C659        C662   1.405       .  A
C659        C666   1.409       .  A
C660        N677   1.157       .  T
C661        N679   1.158       .  T
C662        C663   1.412       .  A
C662        C667   1.436       .  S
C663        C664   1.437       .  A
C663        C669   1.451       .  S
C664        C665   1.443       .  A
C665        C666   1.427       .  A
C665        C668   1.449       .  S
C666        C670   1.452       .  S
C667        N674   1.151       .  T
C668        N675   1.158       .  T
C669        N673   1.156       .  T
C670        N676   1.157       .  T
C671        N680   1.158       .  T
C672        N678   1.157       .  T
C681        C682   1.418       .  A
C681        C686   1.422       .  A
C681        C699   1.450       .  S
C682        C687   1.549       .  S
C682        C683   1.426       .  A
C683        C684   1.427       .  A
C683        C688   1.441       .  S
C684        C685   1.430       .  A
C684        C700   1.455       .  S
C685        C686   1.432       .  A
C686        C689   1.449       .  S
C687        C690   1.417       .  A
C687        C694   1.414       .  A
C688        N705   1.156   1_455  T
C689        N707   1.157       .  T
C690        C691   1.434       .  A
C690        C695   1.451       .  S
C691        C692   1.444       .  A
C691        C697   1.452       .  S
C692        C693   1.437       .  A
C693        C694   1.432       .  A
C693        C696   1.441       .  S
C694        C698   1.449       .  S
C695        N702   1.157       .  T
C696        N703   1.155       .  T
C697        N701   1.158       .  T
C698        N704   1.157       .  T
C699        N708   1.158       .  T
C700        N706   1.158       .  T
C709        C710   1.417       .  A
C709        C714   1.441       .  A
C709        C727   1.452       .  S
C710        C715   1.544       .  S
C710        C711   1.410       .  A
C711        C712   1.419       .  A
C711        C716   1.451       .  S
C712        C713   1.435       .  A
C712        C728   1.449       .  S
C713        C714   1.447       .  A
C714        C717   1.443       .  S
C715        C718   1.412       .  A
C715        C722   1.413       .  A
C716        N733   1.158       .  T
C717        N735   1.157       .  T
C718        C719   1.431       .  A
C718        C723   1.454       .  S
C719        C720   1.446       .  A
C719        C725   1.448       .  S
C720        C721   1.439       .  A
C721        C722   1.427       .  A
C721        C724   1.452       .  S
C722        C726   1.444       .  S
C723        N730   1.157       .  T
C724        N731   1.156       .  T
C725        N729   1.158       .  T
C726        N732   1.155       .  T
C727        N736   1.157       .  T
C728        N734   1.157       .  T
C737        C738   1.401       .  A
C737        C742   1.426       .  A
C737        C755   1.457       .  S
C738        C743   1.531       .  S
C738        C739   1.405       .  A
C739        C740   1.432       .  A
C739        C744   1.451       .  S
C740        C741   1.447       .  A
C740        C756   1.449       .  S
C741        C742   1.458       .  A
C742        C745   1.448       .  S
C743        C746   1.404       .  A
C743        C750   1.411       .  A
C744        N761   1.157       .  T
C745        N763   1.159   1_545  T
C746        C747   1.422       .  A
C746        C751   1.453       .  S
C747        C748   1.439       .  A
C747        C753   1.446       .  S
C748        C749   1.441       .  A
C749        C750   1.431       .  A
C749        C752   1.448       .  S
C750        C754   1.452       .  S
C751        N758   1.157       .  T
C752        N759   1.158       .  T
C753        N757   1.158       .  T
C754        N760   1.158       .  T
C755        N764   1.157       .  T
C756        N762   1.158       .  T
C765        C766   1.410       .  A
C765        C770   1.421       .  A
C765        C783   1.449       .  S
C766        C771   1.512       .  S
C766        C767   1.410       .  A
C767        C768   1.414       .  A
C767        C772   1.450       .  S
C768        C769   1.425       .  A
C768        C784   1.452       .  S
C769        C770   1.425       .  A
C770        C773   1.450       .  S
C771        C774   1.415       .  A
C771        C778   1.411       .  A
C772        N789   1.156       .  T
C773        N791   1.157   1_655  T
C774        C775   1.421       .  A
C774        C779   1.448       .  S
C775        C776   1.415       .  A
C775        C781   1.448       .  S
C776        C777   1.415       .  A
C777        C778   1.411       .  A
C777        C780   1.448   1_655  S
C778        C782   1.451   1_655  S
C779        N786   1.157       .  T
C780        N787   1.157       .  T
C781        N785   1.157       .  T
C782        N788   1.157       .  T
C783        N792   1.158       .  T
C784        N790   1.158       .  T
C793        C794   1.400       .  A
C793        C798   1.409       .  A
C793        C811   1.449       .  S
C794        C799   1.486       .  S
C794        C795   1.419       .  A
C795        C796   1.402       .  A
C795        C800   1.444       .  S
C796        C797   1.409       .  A
C796        C812   1.455       .  S
C797        C798   1.428       .  A
C798        C801   1.447       .  S
C799        C802   1.400       .  A
C799        C806   1.399   1_455  A
C800        N817   1.155       .  T
C801        N819   1.157       .  T
C802        C803   1.409       .  A
C802        C807   1.444       .  S
C803        C804   1.416       .  A
C803        C809   1.446       .  S
C804        C805   1.416   1_455  A
C805        C806   1.401       .  A
C805        C808   1.444       .  S
C806        C810   1.449       .  S
C807        N814   1.158       .  T
C808        N815   1.156       .  T
C809        N813   1.157       .  T
C810        N816   1.157       .  T
C811        N820   1.157       .  T
C812        N818   1.158   1_455  T
C821        C822   1.402       .  A
C821        C826   1.418       .  A
C821        C839   1.452       .  S
C822        C827   1.522       .  S
C822        C823   1.403       .  A
C823        C824   1.428       .  A
C823        C828   1.449       .  S
C824        C825   1.450       .  A
C824        C840   1.446       .  S
C825        C826   1.442       .  A
C826        C829   1.446       .  S
C827        C830   1.403       .  A
C827        C834   1.410       .  A
C828        N845   1.156       .  T
C829        N847   1.157       .  T
C830        C831   1.416       .  A
C830        C835   1.453       .  S
C831        C832   1.445       .  A
C831        C837   1.450       .  S
C832        C833   1.437       .  A
C833        C834   1.426       .  A
C833        C836   1.452       .  S
C834        C838   1.447       .  S
C835        N842   1.157       .  T
C836        N843   1.158       .  T
C837        N841   1.157       .  T
C838        N844   1.156   1_545  T
C839        N848   1.157       .  T
C840        N846   1.158       .  T
C849        C850   1.412       .  A
C849        C854   1.431   1_565  A
C849        C867   1.440       .  S
C850        C855   1.550       .  S
C850        C851   1.410       .  A
C851        C852   1.433       .  A
C851        C856   1.454       .  S
C852        C853   1.451   1_565  A
C852        C868   1.446       .  S
C853        C854   1.441       .  A
C854        C857   1.452       .  S
C855        C858   1.415       .  A
C855        C862   1.421       .  A
C856        N873   1.157       .  T
C857        N875   1.157       .  T
C858        C859   1.425       .  A
C858        C863   1.450       .  S
C859        C860   1.437       .  A
C859        C865   1.450       .  S
C860        C861   1.436       .  A
C861        C862   1.435       .  A
C861        C864   1.448       .  S
C862        C866   1.450       .  S
C863        N870   1.157       .  T
C864        N871   1.157       .  T
C865        N869   1.157       .  T
C866        N872   1.157       .  T
C867        N876   1.153       .  T
C868        N874   1.157   1_565  T
C877        C878   1.406       .  A
C877        C882   1.413       .  A
C877        C895   1.456       .  S
C878        C883   1.514       .  S
C878        C879   1.405       .  A
C879        C880   1.421       .  A
C879        C884   1.452       .  S
C880        C881   1.442       .  A
C880        C896   1.451       .  S
C881        C882   1.446       .  A
C882        C885   1.453       .  S
C883        C886   1.401       .  A
C883        C890   1.407       .  A
C884        N901   1.157       .  T
C885        N903   1.158       .  T
C886        C887   1.411       .  A
C886        C891   1.457       .  S
C887        C888   1.439       .  A
C887        C893   1.445       .  S
C888        C889   1.449       .  A
C889        C890   1.425       .  A
C889        C892   1.450       .  S
C890        C894   1.454       .  S
C891        N898   1.157       .  T
C892        N899   1.158       .  T
C893        N897   1.157       .  T
C894        N900   1.158       .  T
C895        N904   1.158       .  T
C896        N902   1.158       .  T
C905        C906   1.409       .  A
C905        C910   1.423       .  A
C905        C923   1.452       .  S
C906        C911   1.525       .  S
C906        C907   1.403       .  A
C907        C908   1.417       .  A
C907        C912   1.454       .  S
C908        C909   1.443       .  A
C908        C924   1.442       .  S
C909        C910   1.445       .  A
C910        C913   1.450       .  S
C911        C914   1.411       .  A
C911        C918   1.403       .  A
C912        N929   1.158       .  T
C913        N931   1.157       .  T
C914        C915   1.425       .  A
C914        C919   1.453       .  S
C915        C916   1.440       .  A
C915        C921   1.449       .  S
C916        C917   1.444       .  A
C917        C918   1.418       .  A
C917        C920   1.447       .  S
C918        C922   1.449       .  S
C919        N926   1.157       .  T
C920        N927   1.156       .  T
C921        N925   1.158       .  T
C922        N928   1.156       .  T
C923        N932   1.157       .  T
C924        N930   1.156       .  T
C933        C934   1.402       .  A
C933        C938   1.419       .  A
C933        C951   1.452       .  S
C934        C939   1.528       .  S
C934        C935   1.409       .  A
C935        C936   1.427       .  A
C935        C940   1.454       .  S
C936        C937   1.451       .  A
C936        C952   1.452       .  S
C937        C938   1.447       .  A
C938        C941   1.448       .  S
C939        C942   1.414       .  A
C939        C946   1.404       .  A
C940        N957   1.157       .  T
C941        N959   1.158       .  T
C942        C943   1.428       .  A
C942        C947   1.453       .  S
C943        C944   1.439       .  A
C943        C949   1.447       .  S
C944        C945   1.439       .  A
C945        C946   1.419       .  A
C945        C948   1.444       .  S
C946        C950   1.453       .  S
C947        N954   1.157       .  T
C948        N955   1.157       .  T
C949        N953   1.157       .  T
C950        N956   1.157       .  T
C951        N960   1.157       .  T
C952        N958   1.158       .  T
C961        C962   1.418       .  A
C961        C966   1.418       .  A
C961        C979   1.452       .  S
C962        C967   1.526       .  S
C962        C963   1.418       .  A
C963        C964   1.422       .  A
C963        C968   1.450       .  S
C964        C965   1.418       .  A
C964        C980   1.450       .  S
C965        C966   1.419       .  A
C966        C969   1.451       .  S
C967        C970   1.417       .  A
C967        C974   1.418       .  A
C968        N985   1.157       .  T
C969        N987   1.157       .  T
C970        C971   1.421       .  A
C970        C975   1.449       .  S
C971        C972   1.414       .  A
C971        C977   1.448       .  S
C972        C973   1.419       .  A
C973        C974   1.420       .  A
C973        C976   1.450       .  S
C974        C978   1.449       .  S
C975        N982   1.157       .  T
C976        N983   1.157       .  T
C977        N981   1.157       .  T
C978        N984   1.158       .  T
C979        N988   1.157       .  T
C980        N986   1.157       .  T
C989        C990   1.406   1_545  A
C989        C994   1.400       .  A
C989       C1007   1.446       .  S
C990        C995   1.483       .  S
C990        C991   1.415       .  A
C991        C992   1.404   1_565  A
C991        C996   1.446       .  S
C992        C993   1.402       .  A
C992       C1008   1.447       .  S
C993        C994   1.406       .  A
C994        C997   1.442       .  S
C995        C998   1.387       .  A
C995       C1002   1.412       .  A
C996       N1013   1.157       .  T
C997       N1015   1.155       .  T
C998        C999   1.399       .  A
C998       C1003   1.439       .  S
C999       C1000   1.430       .  A
C999       C1005   1.452       .  S
C1000      C1001   1.413       .  A
C1001      C1002   1.410       .  A
C1001      C1004   1.453       .  S
C1002      C1006   1.444       .  S
C1003      N1010   1.153       .  T
C1004      N1011   1.157       .  T
C1005      N1009   1.157       .  T
C1006      N1012   1.154   1_565  T
C1007      N1016   1.158   1_545  T
C1008      N1014   1.157       .  T
