geometry optimzed in LAMMPS
_audit_creation_date              2020-11-30 
_audit_creation_method            'lammps2cif' 
_symmetry_space_group_name_H-M    'P1' 
_symmetry_Int_Tables_number       1 
_symmetry_cell_setting            triclinic 
loop_ 
_symmetry_equiv_pos_as_xyz 
  x,y,z 
_cell_length_a                    32.23822507 
_cell_length_b                    32.21042173695874 
_cell_length_c                    32.66936167270057 
_cell_angle_alpha                 90.06598153486834 
_cell_angle_beta                  90.04184589158275 
_cell_angle_gamma                 120.16247955732845 
loop_ 
_atom_site_label 
_atom_site_type_symbol 
_atom_site_fract_x 
_atom_site_fract_y 
_atom_site_fract_z 
_atom_site_charge 
Fe1        Fe  0.13151606  0.36909127  0.37464206     1.65800
Fe2        Fe  0.23764384  0.36872363  0.37499763     1.73200
Fe3        Fe  0.13075250  0.26232910  0.37510916     1.54400
O4          O  0.08303627  0.25787141  0.41938423    -0.81800
O5          O  0.24165515  0.32744523  0.32853770    -0.80100
O6          O  0.08576151  0.32820646  0.42097676    -0.84300
O7          O  0.08365805  0.32589488  0.33023211    -0.79200
O8          O  0.17162315  0.25795292  0.42145009    -0.81000
O9          O  0.24299520  0.41700580  0.33084150    -0.83700
C10         C  0.06980617  0.28443434  0.31560016     0.97100
C11         C  0.06982301  0.28583357  0.43415480     1.04500
O12         O  0.16664276  0.33338780  0.37490052    -1.12700
O13         O  0.24216388  0.41414838  0.42150737    -0.75100
O14         O  0.17473660  0.41710317  0.41898917    -0.78600
O15         O  0.08525718  0.25772889  0.32884710    -0.79300
C16         C  0.21569904  0.43014789  0.43426642     0.96000
O17         O  0.17281616  0.41444165  0.32831526    -0.77300
O18         O  0.24219365  0.32546924  0.41921273    -0.82400
C19         C  0.21482492  0.28482013  0.31579522     0.98600
C20         C  0.21413224  0.28442448  0.43431091     1.04500
O21         O  0.17367382  0.25719780  0.33086936    -0.78100
C22         C  0.21539361  0.43043375  0.31572884     1.02800
Fe23       Fe  0.36818056  0.13127308  0.12507660     1.65800
Fe24       Fe  0.26197513  0.13149620  0.12471223     1.73200
Fe25       Fe  0.36877358  0.23795410  0.12452430     1.54400
O26         O  0.41434666  0.24267935  0.17077162    -0.81800
O27         O  0.25728275  0.17472337  0.08053813    -0.80100
O28         O  0.41606831  0.17458255  0.16939117    -0.84100
O29         O  0.41378423  0.17212646  0.07861131    -0.79200
O30         O  0.32584431  0.24301452  0.16879186    -0.81000
O31         O  0.25758234  0.08627607  0.07811090    -0.83700
C32         C  0.42962507  0.21447098  0.06537972     0.97100
C33         C  0.42984612  0.21601941  0.18402950     1.04500
O34         O  0.33297055  0.16689897  0.12478870    -1.12700
O35         O  0.25670451  0.08314719  0.16882420    -0.75100
O36         O  0.32701493  0.08599203  0.17152146    -0.78600
O37         O  0.41643551  0.24243141  0.08019379    -0.79300
C38         C  0.28438771  0.06986902  0.18403968     0.96000
O39         O  0.32492099  0.08310666  0.08086760    -0.77300
O40         O  0.25794385  0.17269171  0.17123377    -0.82400
C41         C  0.28531898  0.21573443  0.06537508     0.98600
C42         C  0.28474342  0.21534338  0.18393554     1.04500
O43         O  0.32783711  0.24222968  0.07819754    -0.78100
C44         C  0.28405146  0.07022997  0.06548811     1.02800
C45         C  0.00849369  0.21865257  0.47705552    -0.21500
C46         C  0.03410975  0.26796321  0.46785749    -0.09500
C47         C  0.02482963  0.29937102  0.49097080     0.29400
C48         C  0.49077257  0.28163014  0.02233212    -0.21500
C49         C  0.46520689  0.23232549  0.03157046    -0.09500
C50         C  0.47441625  0.20090940  0.00839894     0.29400
F51         F  0.45011566  0.15288745  0.01545493    -0.20000
H52         H  0.01447351  0.19348703  0.45968916     0.17700
H53         H  0.48478711  0.30679390  0.03969255     0.17700
F54         F  0.04904819  0.34738246  0.48385020    -0.20000
C55         C  0.51912644  0.29697970  0.26469795    -0.21500
C56         C  0.03407530  0.26662779  0.28186500    -0.09500
C57         C  0.01421137  0.21945757  0.26659293     0.29400
C58         C  0.98045103  0.20346058  0.23498654    -0.21500
C59         C  0.46552904  0.23382324  0.21779824    -0.09500
C60         C  0.48534643  0.28097339  0.23310209     0.29400
F61         F  0.47253520  0.31198773  0.21753160    -0.20000
H62         H  0.53369468  0.33345747  0.27563609     0.17700
H63         H  0.96587556  0.16697973  0.22405974     0.17700
F64         F  0.02695112  0.18840715  0.28220698    -0.20000
C65         C  0.20086761  0.47233613  0.25783778    -0.21500
C66         C  0.23341304  0.46616809  0.28208647    -0.09500
C67         C  0.28285813  0.49460832  0.27386963     0.29400
C68         C  0.29901623  0.02865012  0.24247221    -0.21500
C69         C  0.26640830  0.03418316  0.21774357    -0.09500
C70         C  0.21693190  0.00519629  0.22557224     0.29400
F71         F  0.18388656  0.00824703  0.20198017    -0.20000
H72         H  0.16264089  0.45081556  0.26319335     0.17700
H73         H  0.33726479  0.05062456  0.23743500     0.17700
F74         F  0.31587095  0.49094346  0.29699828    -0.20000
C75         C  0.21116671  0.49312206  0.47564980    -0.21500
C76         C  0.23328581  0.46576671  0.46807342    -0.09500
C77         C  0.27220568  0.47321192  0.99288288     0.29400
C78         C  0.28555062  0.00419631  0.02661016    -0.21500
C79         C  0.26651647  0.03469628  0.03174174    -0.09500
C80         C  0.23063190  0.03046533  0.50461055     0.29400
F81         F  0.21216226  0.06005993  0.50763830    -0.20000
H82         H  0.18686262  0.99410974  0.45263384     0.17700
H83         H  0.31824636  0.51194863  0.04299664     0.17700
F84         F  0.29413444  0.44700878  0.98745322    -0.20000
C85         C  0.21824674  0.20937249  0.02221160    -0.21500
C86         C  0.26746903  0.23340289  0.03162828    -0.09500
C87         C  0.29887583  0.27436098  0.00872961     0.29400
C88         C  0.28118676  0.29070449  0.47742234    -0.21500
C89         C  0.23196341  0.26669621  0.46802232    -0.09500
C90         C  0.20055859  0.22570995  0.49089209     0.29400
F91         F  0.15260892  0.20159675  0.48353615    -0.20000
H92         H  0.19311672  0.17796374  0.03937238     0.17700
H93         H  0.30632505  0.32211154  0.46025623     0.17700
F94         F  0.34683356  0.29844727  0.01604589    -0.20000
C95         C  0.22571876  0.20143593  0.23951303    -0.21500
C96         C  0.26721183  0.23344318  0.21770637    -0.09500
C97         C  0.29115773  0.28248259  0.22847564     0.29400
C98         C  0.27388575  0.29870804  0.26025815    -0.21500
C99         C  0.23238241  0.26670489  0.28205469    -0.09500
C100        C  0.20844988  0.21766198  0.27129914     0.29400
F101        F  0.16868481  0.18501441  0.29172498    -0.20000
H102        H  0.20658823  0.16351661  0.23218403     0.17700
H103        H  0.29301808  0.33663038  0.26758717     0.17700
F104        F  0.33093941  0.31512901  0.20806690    -0.20000
Fe105      Fe  0.13151609  0.36909127  0.87464205     1.65800
Fe106      Fe  0.23764386  0.36872369  0.87499761     1.73200
Fe107      Fe  0.13075256  0.26232910  0.87510913     1.54400
O108        O  0.08303640  0.25787130  0.91938435    -0.81800
O109        O  0.24165519  0.32744516  0.82853791    -0.80100
O110        O  0.08576124  0.32820618  0.92097649    -0.84300
O111        O  0.08365833  0.32589502  0.83023191    -0.79200
O112        O  0.17162329  0.25795291  0.92144987    -0.81000
O113        O  0.24299519  0.41700563  0.83084124    -0.83700
C114        C  0.06980627  0.28443429  0.81560006     0.97100
C115        C  0.06982287  0.28583336  0.93415467     1.04500
O116        O  0.16664278  0.33338781  0.87490050    -1.12700
O117        O  0.24216391  0.41414863  0.92150718    -0.75100
O118        O  0.17473637  0.41710291  0.91898933    -0.78600
O119        O  0.08525704  0.25772875  0.82884722    -0.79300
C120        C  0.21569898  0.43014791  0.93426641     0.96000
O121        O  0.17281641  0.41444186  0.82831551    -0.77300
O122        O  0.24219367  0.32546946  0.91921290    -0.82400
C123        C  0.21482498  0.28482012  0.81579527     0.98600
C124        C  0.21413237  0.28442471  0.93431093     1.04500
O125        O  0.17367381  0.25719791  0.83086922    -0.78100
C126        C  0.21539379  0.43043380  0.81572884     1.02800
Fe127      Fe  0.36818046  0.13127305  0.62507675     1.65800
Fe128      Fe  0.26197503  0.13149616  0.62471232     1.73200
Fe129      Fe  0.36877351  0.23795407  0.62452438     1.54400
O130        O  0.41434680  0.24267930  0.67077150    -0.81800
O131        O  0.25728259  0.17472327  0.58053821    -0.80100
O132        O  0.41606805  0.17458240  0.66939137    -0.84100
O133        O  0.41378412  0.17212651  0.57861163    -0.79200
O134        O  0.32584431  0.24301435  0.66879204    -0.81000
O135        O  0.25758233  0.08627601  0.57811110    -0.83700
C136        C  0.42962495  0.21447106  0.56537982     0.97100
C137        C  0.42984603  0.21601925  0.68402958     1.04500
O138        O  0.33297042  0.16689896  0.62478886    -1.12700
O139        O  0.25670452  0.08314733  0.66882437    -0.75100
O140        O  0.32701482  0.08599193  0.67152158    -0.78600
O141        O  0.41643536  0.24243149  0.58019368    -0.79300
C142        C  0.28438760  0.06986898  0.68403977     0.96000
O143        O  0.32492103  0.08310675  0.58086770    -0.77300
O144        O  0.25794372  0.17269155  0.67123377    -0.82400
C145        C  0.28531887  0.21573436  0.56537510     0.98600
C146        C  0.28474337  0.21534321  0.68393565     1.04500
O147        O  0.32783684  0.24222958  0.57819772    -0.78100
C148        C  0.28405147  0.07022999  0.56548823     1.02800
C149        C  0.00849368  0.21865264  0.97705551    -0.21500
C150        C  0.03410977  0.26796310  0.96785745    -0.09500
C151        C  0.02482964  0.29937103  0.99097085     0.29400
C152        C  0.49077248  0.28163031  0.52233211    -0.21500
C153        C  0.46520676  0.23232549  0.53157045    -0.09500
C154        C  0.47441627  0.20090961  0.50839913     0.29400
F155        F  0.45011573  0.15288760  0.51545495    -0.20000
H156        H  0.01447358  0.19348676  0.95968878     0.17700
H157        H  0.48478687  0.30679369  0.53969206     0.17700
F158        F  0.04904843  0.34738233  0.98385022    -0.20000
C159        C  0.51912689  0.29698026  0.76469776    -0.21500
C160        C  0.03407537  0.26662777  0.78186485    -0.09500
C161        C  0.01420981  0.21945657  0.76659386     0.29400
C162        C  0.98044993  0.20346038  0.73498771    -0.21500
C163        C  0.46552909  0.23382333  0.71779822    -0.09500
C164        C  0.48534660  0.28097333  0.73310175     0.29400
F165        F  0.47253567  0.31198792  0.71753119    -0.20000
H166        H  0.53369388  0.33345474  0.77563460     0.17700
H167        H  0.96587206  0.16697472  0.72406000     0.17700
F168        F  0.02694833  0.18840589  0.78220915    -0.20000
C169        C  0.20086797  0.47233619  0.75783773    -0.21500
C170        C  0.23341290  0.46616794  0.78208640    -0.09500
C171        C  0.28285828  0.49460839  0.77386955     0.29400
C172        C  0.29901610  0.02865018  0.74247238    -0.21500
C173        C  0.26640826  0.03418321  0.71774371    -0.09500
C174        C  0.21693191  0.00519627  0.72557226     0.29400
F175        F  0.18388662  0.00824703  0.70198027    -0.20000
H176        H  0.16263811  0.45081343  0.76319352     0.17700
H177        H  0.33726536  0.05062537  0.73743534     0.17700
F178        F  0.31587096  0.49094345  0.79699826    -0.20000
C179        C  0.21116629  0.49312160  0.97565032    -0.21500
C180        C  0.23328568  0.46576677  0.96807345    -0.09500
C181        C  0.27220516  0.47321127  0.49288315     0.29400
C182        C  0.28555108  0.00419667  0.52660966    -0.21500
C183        C  0.26651662  0.03469621  0.53174188    -0.09500
C184        C  0.23063230  0.03046585  0.00461006     0.29400
F185        F  0.21216331  0.06006099  0.00763753    -0.20000
H186        H  0.18686300  0.99411059  0.95263249     0.17700
H187        H  0.31824432  0.51194721  0.54299673     0.17700
F188        F  0.29413363  0.44700782  0.48745396    -0.20000
C189        C  0.21824691  0.20937311  0.52221138    -0.21500
C190        C  0.26746858  0.23340257  0.53162842    -0.09500
C191        C  0.29887580  0.27436098  0.50872953     0.29400
C192        C  0.28118720  0.29070502  0.97742205    -0.21500
C193        C  0.23196332  0.26669608  0.96802230    -0.09500
C194        C  0.20055892  0.22571016  0.99089189     0.29400
F195        F  0.15260913  0.20159673  0.98353604    -0.20000
H196        H  0.19311322  0.17795986  0.53937453     0.17700
H197        H  0.30632295  0.32210901  0.96025768     0.17700
F198        F  0.34683350  0.29844693  0.51604575    -0.20000
C199        C  0.22571848  0.20143628  0.73951285    -0.21500
C200        C  0.26721172  0.23344281  0.71770651    -0.09500
C201        C  0.29115816  0.28248239  0.72847618     0.29400
C202        C  0.27388607  0.29870767  0.76025861    -0.21500
C203        C  0.23238245  0.26670488  0.78205475    -0.09500
C204        C  0.20844941  0.21766188  0.77129877     0.29400
F205        F  0.16868400  0.18501466  0.79172427    -0.20000
H206        H  0.20658611  0.16351365  0.73218314     0.17700
H207        H  0.29301934  0.33663075  0.76758848     0.17700
F208        F  0.33094028  0.31512873  0.70806778    -0.20000
Fe209      Fe  0.13159936  0.86914406  0.37479046     1.65800
Fe210      Fe  0.23779609  0.86893286  0.37526814     1.73200
Fe211      Fe  0.13101045  0.76246929  0.37546768     1.54400
O212        O  0.08320875  0.75801900  0.41965037    -0.81800
O213        O  0.24184504  0.82777990  0.32873271    -0.80100
O214        O  0.08603286  0.82840214  0.42130518    -0.84300
O215        O  0.08368914  0.82571721  0.33053316    -0.79200
O216        O  0.17182627  0.75826779  0.42193961    -0.81000
O217        O  0.24312424  0.91735093  0.33118878    -0.83700
C218        C  0.07001094  0.78432063  0.31584325     0.97100
C219        C  0.07008626  0.78602365  0.43448564     1.04500
O220        O  0.16680723  0.83352317  0.37515611    -1.12700
O221        O  0.24212281  0.91408520  0.42189101    -0.75100
O222        O  0.17488367  0.91742312  0.41893574    -0.78600
O223        O  0.08557590  0.75770545  0.32907685    -0.79300
C224        C  0.21569280  0.93022121  0.43441187     0.96000
O225        O  0.17273552  0.91431656  0.32829066    -0.77300
O226        O  0.24246625  0.82566137  0.41941617    -0.82400
C227        C  0.21512240  0.78506594  0.31614343     0.98600
C228        C  0.21438498  0.78472447  0.43468661     1.04500
O229        O  0.17407011  0.75735782  0.33135598    -0.78100
C230        C  0.21541503  0.93054099  0.31587590     1.02800
Fe231      Fe  0.36826122  0.63136418  0.12520725     1.65800
Fe232      Fe  0.26214284  0.63174875  0.12499922     1.73200
Fe233      Fe  0.36904556  0.73813538  0.12488429     1.54400
O234        O  0.41459198  0.74267610  0.17107289    -0.81800
O235        O  0.25755880  0.67503908  0.08084416    -0.80100
O236        O  0.41619320  0.67451546  0.16959430    -0.84100
O237        O  0.41394611  0.67228459  0.07884881    -0.79200
O238        O  0.32618899  0.74322599  0.16920826    -0.81000
O239        O  0.25754480  0.58633975  0.07843850    -0.83700
C240        C  0.42987832  0.71466897  0.06569927     0.97100
C241        C  0.43006055  0.71596258  0.18426132     1.04500
O242        O  0.33314445  0.66707656  0.12504452    -1.12700
O243        O  0.25684561  0.58344588  0.16910496    -0.75100
O244        O  0.32701836  0.58598810  0.17154896    -0.78600
O245        O  0.41670111  0.74263277  0.08053032    -0.79300
C246        C  0.28445563  0.57000369  0.18417344     0.96000
O247        O  0.32497368  0.58338441  0.08087509    -0.77300
O248        O  0.25818897  0.67299454  0.17151744    -0.82400
C249        C  0.28560706  0.71610135  0.06577091     0.98600
C250        C  0.28504618  0.71559877  0.18429320     1.04500
O251        O  0.32812125  0.74256798  0.07862236    -0.78100
C252        C  0.28399283  0.57033881  0.06563903     1.02800
C253        C  0.00884661  0.71886862  0.47746359    -0.21500
C254        C  0.03446417  0.76817980  0.46826224    -0.09500
C255        C  0.02527765  0.79960515  0.49144605     0.29400
C256        C  0.49119287  0.78186334  0.02278712    -0.21500
C257        C  0.46555038  0.73254651  0.03196493    -0.09500
C258        C  0.47478434  0.70113104  0.00881653     0.29400
F259        F  0.45052434  0.65311349  0.01590297    -0.20000
H260        H  0.01480424  0.69369780  0.46008830     0.17700
H261        H  0.48523964  0.80703111  0.04017389     0.17700
F262        F  0.04961391  0.84763191  0.48441127    -0.20000
C263        C  0.51931880  0.79683621  0.26496433    -0.21500
C264        C  0.03436358  0.76652331  0.28204565    -0.09500
C265        C  0.01469039  0.71943990  0.26661675     0.29400
C266        C  0.98090951  0.70344623  0.23501642    -0.21500
C267        C  0.46582271  0.73374815  0.21797343    -0.09500
C268        C  0.48556398  0.78085634  0.23335986     0.29400
F269        F  0.47269099  0.81185980  0.21787338    -0.20000
H270        H  0.53378436  0.83327195  0.27598542     0.17700
H271        H  0.96644553  0.66701920  0.22398104     0.17700
F272        F  0.02764010  0.68848055  0.28207015    -0.20000
C273        C  0.20081027  0.97178416  0.25745577    -0.21500
C274        C  0.23341427  0.96624192  0.28218144    -0.09500
C275        C  0.28289403  0.99525161  0.27437067     0.29400
C276        C  0.29900136  0.52809622  0.24205737    -0.21500
C277        C  0.26645360  0.53426299  0.21781000    -0.09500
C278        C  0.21701036  0.50582712  0.22603171     0.29400
F279        F  0.18399537  0.50950476  0.20291723    -0.20000
H280        H  0.16255703  0.94981542  0.26249236     0.17700
H281        H  0.33722946  0.54962226  0.23670016     0.17700
F282        F  0.31593957  0.99224468  0.29799808    -0.20000
C283        C  0.21416999  0.99625518  0.47329202    -0.21500
C284        C  0.23320749  0.96575586  0.46815972    -0.09500
C285        C  0.26908718  0.96998483  0.99529716     0.29400
C286        C  0.28848293  0.50734590  0.02426719    -0.21500
C287        C  0.26637253  0.53470832  0.03184058    -0.09500
C288        C  0.22744036  0.52725267  0.50704188     0.29400
F289        F  0.20549778  0.55343982  0.51249050    -0.20000
H290        H  0.18140405  0.48851496  0.45692117     0.17700
H291        H  0.31285832  0.00634106  0.04726873     0.17700
F292        F  0.28755935  0.94039153  0.99227907    -0.20000
C293        C  0.21852422  0.70987318  0.02273831    -0.21500
C294        C  0.26775908  0.73384529  0.03208761    -0.09500
C295        C  0.29916562  0.77478471  0.00917038     0.29400
C296        C  0.28146917  0.79110395  0.47784394    -0.21500
C297        C  0.23223654  0.76709882  0.46846578    -0.09500
C298        C  0.20082680  0.72619538  0.49142165     0.29400
F299        F  0.15286226  0.70212928  0.48413995    -0.20000
H300        H  0.19338571  0.67850084  0.03994327     0.17700
H301        H  0.30660323  0.82247141  0.46064023     0.17700
F302        F  0.34712675  0.79885293  0.01647261    -0.20000
C303        C  0.22604527  0.70167639  0.23989420    -0.21500
C304        C  0.26752319  0.73369116  0.21807444    -0.09500
C305        C  0.29144647  0.78273445  0.22882409     0.29400
C306        C  0.27417168  0.79895701  0.26060368    -0.21500
C307        C  0.23268586  0.76694689  0.28241552    -0.09500
C308        C  0.20876913  0.71789887  0.27167571     0.29400
F309        F  0.16899922  0.68524845  0.29209561    -0.20000
H310        H  0.20692635  0.66375062  0.23257249     0.17700
H311        H  0.29328873  0.83688432  0.26791576     0.17700
F312        F  0.33119656  0.81538963  0.20838675    -0.20000
Fe313      Fe  0.13159929  0.86914405  0.87479049     1.65800
Fe314      Fe  0.23779606  0.86893281  0.87526818     1.73200
Fe315      Fe  0.13101038  0.76246928  0.87546779     1.54400
O316        O  0.08320863  0.75801900  0.91965036    -0.81800
O317        O  0.24184506  0.82778000  0.82873258    -0.80100
O318        O  0.08603280  0.82840218  0.92130523    -0.84300
O319        O  0.08368902  0.82571708  0.83053325    -0.79200
O320        O  0.17182614  0.75826788  0.92193988    -0.81000
O321        O  0.24312427  0.91735105  0.83118886    -0.83700
C322        C  0.07001094  0.78432062  0.81584325     0.97100
C323        C  0.07008625  0.78602374  0.93448570     1.04500
O324        O  0.16680717  0.83352314  0.87515616    -1.12700
O325        O  0.24212271  0.91408504  0.92189116    -0.75100
O326        O  0.17488371  0.91742322  0.91893564    -0.78600
O327        O  0.08557592  0.75770540  0.82907684    -0.79300
C328        C  0.21569269  0.93022103  0.93441200     0.96000
O329        O  0.17273533  0.91431644  0.82829060    -0.77300
O330        O  0.24246615  0.82566118  0.91941609    -0.82400
C331        C  0.21512256  0.78506592  0.81614364     0.98600
C332        C  0.21438478  0.78472446  0.93468685     1.04500
O333        O  0.17407017  0.75735777  0.83135625    -0.78100
C334        C  0.21541496  0.93054107  0.81587599     1.02800
Fe335      Fe  0.36826125  0.63136415  0.62520721     1.65800
Fe336      Fe  0.26214287  0.63174879  0.62499922     1.73200
Fe337      Fe  0.36904544  0.73813531  0.62488418     1.54400
O338        O  0.41459173  0.74267598  0.67107287    -0.81800
O339        O  0.25755889  0.67503929  0.58084428    -0.80100
O340        O  0.41619342  0.67451549  0.66959420    -0.84100
O341        O  0.41394600  0.67228448  0.57884866    -0.79200
O342        O  0.32618875  0.74322596  0.66920793    -0.81000
O343        O  0.25754479  0.58633983  0.57843837    -0.83700
C344        C  0.42987841  0.71466901  0.56569928     0.97100
C345        C  0.43006047  0.71596249  0.68426130     1.04500
O346        O  0.33314445  0.66707652  0.62504439    -1.12700
O347        O  0.25684557  0.58344574  0.66910489    -0.75100
O348        O  0.32701842  0.58598823  0.67154897    -0.78600
O349        O  0.41670126  0.74263285  0.58053036    -0.79300
C350        C  0.28445562  0.57000372  0.68417348     0.96000
O351        O  0.32497357  0.58338432  0.58087521    -0.77300
O352        O  0.25818919  0.67299455  0.67151750    -0.82400
C353        C  0.28560709  0.71610134  0.56577080     0.98600
C354        C  0.28504622  0.71559873  0.68429315     1.04500
O355        O  0.32812138  0.74256788  0.57862201    -0.78100
C356        C  0.28399278  0.57033872  0.56563905     1.02800
C357        C  0.00884631  0.71886876  0.97746371    -0.21500
C358        C  0.03446414  0.76817957  0.96826215    -0.09500
C359        C  0.02527761  0.79960505  0.99144598     0.29400
C360        C  0.49119275  0.78186302  0.52278704    -0.21500
C361        C  0.46555039  0.73254641  0.53196499    -0.09500
C362        C  0.47478448  0.70113099  0.50881654     0.29400
F363        F  0.45052452  0.65311339  0.51590301    -0.20000
H364        H  0.01480444  0.69369515  0.96008668     0.17700
H365        H  0.48523893  0.80703192  0.54017467     0.17700
F366        F  0.04961400  0.84763199  0.98441147    -0.20000
C367        C  0.51931721  0.79683578  0.76496603    -0.21500
C368        C  0.03436347  0.76652297  0.78204566    -0.09500
C369        C  0.01469104  0.71944031  0.76661637     0.29400
C370        C  0.98090987  0.70344609  0.73501580    -0.21500
C371        C  0.46582266  0.73374807  0.71797342    -0.09500
C372        C  0.48556195  0.78085510  0.73336132     0.29400
F373        F  0.47268697  0.81185796  0.71787666    -0.20000
H374        H  0.53377917  0.83326536  0.77598666     0.17700
H375        H  0.96644755  0.66702340  0.72398168     0.17700
F376        F  0.02764122  0.68848100  0.78206919    -0.20000
C377        C  0.20081019  0.97178414  0.75745574    -0.21500
C378        C  0.23341426  0.96624197  0.78218145    -0.09500
C379        C  0.28289405  0.99525183  0.77437085     0.29400
C380        C  0.29900104  0.52809602  0.74205738    -0.21500
C381        C  0.26645371  0.53426300  0.71781004    -0.09500
C382        C  0.21701014  0.50582686  0.72603175     0.29400
F383        F  0.18399532  0.50950469  0.70291722    -0.20000
H384        H  0.16255745  0.94981553  0.76249198     0.17700
H385        H  0.33723165  0.54962376  0.73669987     0.17700
F386        F  0.31593958  0.99224494  0.79799834    -0.20000
C387        C  0.21417048  0.99625566  0.97329157    -0.21500
C388        C  0.23320741  0.96575585  0.96815966    -0.09500
C389        C  0.26908786  0.96998532  0.49529678     0.29400
C390        C  0.28848256  0.50734526  0.52426753    -0.21500
C391        C  0.26637244  0.53470822  0.53184048    -0.09500
C392        C  0.22743980  0.52725215  0.00704233     0.29400
F393        F  0.20549674  0.55343870  0.01249148    -0.20000
H394        H  0.18140209  0.48851376  0.95692138     0.17700
H395        H  0.31286044  0.00634161  0.54726906     0.17700
F396        F  0.28756051  0.94039255  0.49227817    -0.20000
C397        C  0.21852403  0.70987301  0.52273847    -0.21500
C398        C  0.26775931  0.73384544  0.53208743    -0.09500
C399        C  0.29916572  0.77478457  0.50917032     0.29400
C400        C  0.28146887  0.79110386  0.97784427    -0.21500
C401        C  0.23223659  0.76709889  0.96846586    -0.09500
C402        C  0.20082665  0.72619510  0.99142178     0.29400
F403        F  0.15286219  0.70212897  0.98413975    -0.20000
H404        H  0.19338758  0.67850364  0.53994215     0.17700
H405        H  0.30660433  0.82247315  0.96063935     0.17700
F406        F  0.34712697  0.79885278  0.51647235    -0.20000
C407        C  0.22604554  0.70167626  0.73989431    -0.21500
C408        C  0.26752342  0.73369124  0.71807443    -0.09500
C409        C  0.29144647  0.78273430  0.72882404     0.29400
C410        C  0.27417174  0.79895732  0.76060376    -0.21500
C411        C  0.23268579  0.76694660  0.78241567    -0.09500
C412        C  0.20876929  0.71789888  0.77167583     0.29400
F413        F  0.16899939  0.68524839  0.79209576    -0.20000
H414        H  0.20692763  0.66375138  0.73257327     0.17700
H415        H  0.29328707  0.83688140  0.76791536     0.17700
F416        F  0.33119656  0.81538969  0.70838672    -0.20000
Fe417      Fe  0.63151598  0.36909126  0.37464208     1.65800
Fe418      Fe  0.73764377  0.36872361  0.37499758     1.73200
Fe419      Fe  0.63075245  0.26232907  0.37510918     1.54400
O420        O  0.58303626  0.25787131  0.41938439    -0.81800
O421        O  0.74165508  0.32744509  0.32853783    -0.80100
O422        O  0.58576130  0.32820635  0.42097664    -0.84300
O423        O  0.58365809  0.32589491  0.33023198    -0.79200
O424        O  0.67162316  0.25795292  0.42144999    -0.81000
O425        O  0.74299528  0.41700577  0.33084123    -0.83700
C426        C  0.56980613  0.28443421  0.31560015     0.97100
C427        C  0.56982290  0.28583344  0.43415478     1.04500
O428        O  0.66664257  0.33338779  0.37490054    -1.12700
O429        O  0.74216380  0.41414846  0.42150722    -0.75100
O430        O  0.67473642  0.41710308  0.41898929    -0.78600
O431        O  0.58525704  0.25772876  0.32884723    -0.79300
C432        C  0.71569895  0.43014794  0.43426636     0.96000
O433        O  0.67281626  0.41444166  0.32831544    -0.77300
O434        O  0.74219363  0.32546936  0.41921286    -0.82400
C435        C  0.71482487  0.28482002  0.31579527     0.98600
C436        C  0.71413229  0.28442450  0.43431089     1.04500
O437        O  0.67367374  0.25719781  0.33086925    -0.78100
C438        C  0.71539383  0.43043385  0.31572887     1.02800
Fe439      Fe  0.86818057  0.13127304  0.12507659     1.65800
Fe440      Fe  0.76197525  0.13149618  0.12471221     1.73200
Fe441      Fe  0.86877362  0.23795408  0.12452434     1.54400
O442        O  0.91434671  0.24267929  0.17077168    -0.81800
O443        O  0.75728279  0.17472349  0.08053823    -0.80100
O444        O  0.91606835  0.17458256  0.16939111    -0.84100
O445        O  0.91378408  0.17212641  0.07861126    -0.79200
O446        O  0.82584419  0.24301436  0.16879191    -0.81000
O447        O  0.75758263  0.08627625  0.07811081    -0.83700
C448        C  0.92962500  0.21447095  0.06537961     0.97100
C449        C  0.92984618  0.21601932  0.18402949     1.04500
O450        O  0.83297069  0.16689899  0.12478871    -1.12700
O451        O  0.75670470  0.08314712  0.16882410    -0.75100
O452        O  0.82701503  0.08599207  0.17152151    -0.78600
O453        O  0.91643567  0.24243150  0.08019378    -0.79300
C454        C  0.78438788  0.06986898  0.18403967     0.96000
O455        O  0.82492096  0.08310652  0.08086766    -0.77300
O456        O  0.75794386  0.17269146  0.17123377    -0.82400
C457        C  0.78531908  0.21573448  0.06537507     0.98600
C458        C  0.78474333  0.21534306  0.18393566     1.04500
O459        O  0.82783719  0.24222971  0.07819755    -0.78100
C460        C  0.78405168  0.07023008  0.06548799     1.02800
C461        C  0.50849381  0.21865252  0.47705545    -0.21500
C462        C  0.53410973  0.26796338  0.46785754    -0.09500
C463        C  0.52482955  0.29937104  0.49097075     0.29400
C464        C  0.99077271  0.28163011  0.02233192    -0.21500
C465        C  0.96520684  0.23232569  0.03157041    -0.09500
C466        C  0.97441628  0.20090950  0.00839891     0.29400
F467        F  0.95011565  0.15288756  0.01545488    -0.20000
H468        H  0.51447324  0.19348872  0.45969009     0.17700
H469        H  0.98478700  0.30679582  0.03969352     0.17700
F470        F  0.54904812  0.34738245  0.48385017    -0.20000
C471        C  0.01912600  0.29697990  0.26469840    -0.21500
C472        C  0.53407536  0.26662784  0.28186497    -0.09500
C473        C  0.51421052  0.21945701  0.26659333     0.29400
C474        C  0.48045060  0.20346068  0.23498702    -0.21500
C475        C  0.96552904  0.23382339  0.21779830    -0.09500
C476        C  0.98534570  0.28097301  0.23310242     0.29400
F477        F  0.97253394  0.31198724  0.21753249    -0.20000
H478        H  0.03369239  0.33345458  0.27563596     0.17700
H479        H  0.46587332  0.16697629  0.22405948     0.17700
F480        F  0.52694983  0.18840659  0.28220791    -0.20000
C481        C  0.70086816  0.47233632  0.25783768    -0.21500
C482        C  0.73341257  0.46616781  0.28208639    -0.09500
C483        C  0.78285809  0.49460841  0.27386958     0.29400
C484        C  0.79901652  0.02865020  0.24247216    -0.21500
C485        C  0.76640836  0.03418316  0.21774355    -0.09500
C486        C  0.71693219  0.00519645  0.22557215     0.29400
F487        F  0.68388659  0.00824704  0.20198018    -0.20000
H488        H  0.66263465  0.45081151  0.26319402     0.17700
H489        H  0.83726470  0.05062452  0.23743509     0.17700
F490        F  0.81587092  0.49094371  0.29699836    -0.20000
C491        C  0.71116639  0.49312198  0.47564989    -0.21500
C492        C  0.73328569  0.46576671  0.46807349    -0.09500
C493        C  0.77220547  0.47321163  0.99288305     0.29400
C494        C  0.78555059  0.00419607  0.02661031    -0.21500
C495        C  0.76651644  0.03469617  0.03174177    -0.09500
C496        C  0.73063163  0.03046505  0.50461079     0.29400
F497        F  0.71216165  0.06005932  0.50763873    -0.20000
H498        H  0.68686225  0.99410891  0.45263486     0.17700
H499        H  0.81824712  0.51194840  0.04299756     0.17700
F500        F  0.79413394  0.44700832  0.98745356    -0.20000
C501        C  0.71824678  0.20937286  0.02221167    -0.21500
C502        C  0.76746903  0.23340305  0.03162840    -0.09500
C503        C  0.79887583  0.27436093  0.00872960     0.29400
C504        C  0.78118680  0.29070463  0.47742236    -0.21500
C505        C  0.73196334  0.26669606  0.46802237    -0.09500
C506        C  0.70055857  0.22570977  0.49089217     0.29400
F507        F  0.65260896  0.20159665  0.48353609    -0.20000
H508        H  0.69311626  0.17796365  0.03937278     0.17700
H509        H  0.80632423  0.32211052  0.46025656     0.17700
F510        F  0.84683359  0.29844711  0.01604568    -0.20000
C511        C  0.72571851  0.20143564  0.23951311    -0.21500
C512        C  0.76721158  0.23344292  0.21770639    -0.09500
C513        C  0.79115768  0.28248246  0.22847575     0.29400
C514        C  0.77388551  0.29870774  0.26025817    -0.21500
C515        C  0.73238234  0.26670487  0.28205473    -0.09500
C516        C  0.70844975  0.21766191  0.27129917     0.29400
F517        F  0.66868471  0.18501435  0.29172497    -0.20000
H518        H  0.70658805  0.16351669  0.23218415     0.17700
H519        H  0.79301821  0.33663145  0.26758735     0.17700
F520        F  0.83093947  0.31512890  0.20806700    -0.20000
Fe521      Fe  0.63151601  0.36909128  0.87464205     1.65800
Fe522      Fe  0.73764381  0.36872364  0.87499758     1.73200
Fe523      Fe  0.63075257  0.26232911  0.87510913     1.54400
O524        O  0.58303645  0.25787129  0.91938429    -0.81800
O525        O  0.74165510  0.32744513  0.82853779    -0.80100
O526        O  0.58576127  0.32820623  0.92097657    -0.84300
O527        O  0.58365813  0.32589491  0.83023193    -0.79200
O528        O  0.67162339  0.25795299  0.92144992    -0.81000
O529        O  0.74299531  0.41700569  0.83084130    -0.83700
C530        C  0.56980620  0.28443427  0.81560014     0.97100
C531        C  0.56982296  0.28583338  0.93415467     1.04500
O532        O  0.66664264  0.33338782  0.87490050    -1.12700
O533        O  0.74216381  0.41414850  0.92150719    -0.75100
O534        O  0.67473640  0.41710305  0.91898931    -0.78600
O535        O  0.58525717  0.25772880  0.82884721    -0.79300
C536        C  0.71569903  0.43014796  0.93426636     0.96000
O537        O  0.67281636  0.41444183  0.82831542    -0.77300
O538        O  0.74219371  0.32546942  0.91921286    -0.82400
C539        C  0.71482489  0.28482000  0.81579524     0.98600
C540        C  0.71413251  0.28442472  0.93431089     1.04500
O541        O  0.67367381  0.25719784  0.83086922    -0.78100
C542        C  0.71539385  0.43043381  0.81572887     1.02800
Fe543      Fe  0.86818054  0.13127302  0.62507675     1.65800
Fe544      Fe  0.76197521  0.13149618  0.62471235     1.73200
Fe545      Fe  0.86877361  0.23795413  0.62452438     1.54400
O546        O  0.91434700  0.24267934  0.67077149    -0.81800
O547        O  0.75728272  0.17472322  0.58053826    -0.80100
O548        O  0.91606816  0.17458233  0.66939150    -0.84100
O549        O  0.91378429  0.17212651  0.57861156    -0.79200
O550        O  0.82584444  0.24301437  0.66879207    -0.81000
O551        O  0.75758246  0.08627591  0.57811118    -0.83700
C552        C  0.92962507  0.21447107  0.56537978     0.97100
C553        C  0.92984620  0.21601930  0.68402962     1.04500
O554        O  0.83297067  0.16689901  0.62478887    -1.12700
O555        O  0.75670461  0.08314737  0.66882440    -0.75100
O556        O  0.82701490  0.08599192  0.67152159    -0.78600
O557        O  0.91643545  0.24243152  0.58019365    -0.79300
C558        C  0.78438776  0.06986904  0.68403979     0.96000
O559        O  0.82492106  0.08310667  0.58086760    -0.77300
O560        O  0.75794397  0.17269164  0.67123374    -0.82400
C561        C  0.78531888  0.21573439  0.56537521     0.98600
C562        C  0.78474360  0.21534320  0.68393575     1.04500
O563        O  0.82783688  0.24222964  0.57819773    -0.78100
C564        C  0.78405169  0.07023011  0.56548804     1.02800
C565        C  0.50849369  0.21865264  0.97705548    -0.21500
C566        C  0.53410978  0.26796312  0.96785740    -0.09500
C567        C  0.52482958  0.29937093  0.99097075     0.29400
C568        C  0.99077253  0.28163033  0.52233215    -0.21500
C569        C  0.96520680  0.23232549  0.53157036    -0.09500
C570        C  0.97441629  0.20090948  0.50839902     0.29400
F571        F  0.95011562  0.15288754  0.51545490    -0.20000
H572        H  0.51447360  0.19348672  0.95968863     0.17700
H573        H  0.98478718  0.30679346  0.53969212     0.17700
F574        F  0.54904817  0.34738235  0.98385012    -0.20000
C575        C  0.01912727  0.29698012  0.76469722    -0.21500
C576        C  0.53407535  0.26662768  0.78186490    -0.09500
C577        C  0.51421043  0.21945700  0.76659353     0.29400
C578        C  0.48045027  0.20346032  0.73498716    -0.21500
C579        C  0.96552915  0.23382314  0.71779822    -0.09500
C580        C  0.98534716  0.28097361  0.73310143     0.29400
F581        F  0.97253676  0.31198835  0.71753033    -0.20000
H582        H  0.03369565  0.33345706  0.77563442     0.17700
H583        H  0.46587410  0.16697787  0.72405993     0.17700
F584        F  0.52694951  0.18840641  0.78220827    -0.20000
C585        C  0.70086786  0.47233607  0.75783778    -0.21500
C586        C  0.73341302  0.46616795  0.78208643    -0.09500
C587        C  0.78285827  0.49460841  0.77386962     0.29400
C588        C  0.79901645  0.02865042  0.74247237    -0.21500
C589        C  0.76640834  0.03418330  0.71774369    -0.09500
C590        C  0.71693228  0.00519647  0.72557223     0.29400
F591        F  0.68388669  0.00824696  0.70198027    -0.20000
H592        H  0.66263891  0.45081372  0.76319333     0.17700
H593        H  0.83726480  0.05062503  0.73743542     0.17700
F594        F  0.81587110  0.49094366  0.79699828    -0.20000
C595        C  0.71116663  0.49312171  0.97565026    -0.21500
C596        C  0.73328567  0.46576675  0.96807336    -0.09500
C597        C  0.77220514  0.47321134  0.49288313     0.29400
C598        C  0.78555148  0.00419705  0.52660954    -0.21500
C599        C  0.76651662  0.03469629  0.53174183    -0.09500
C600        C  0.73063242  0.03046589  0.00461004     0.29400
F601        F  0.71216345  0.06006108  0.00763751    -0.20000
H602        H  0.68686243  0.99411026  0.95263266     0.17700
H603        H  0.81824444  0.51194754  0.54299636     0.17700
F604        F  0.79413351  0.44700778  0.48745389    -0.20000
C605        C  0.71824700  0.20937302  0.52221138    -0.21500
C606        C  0.76746854  0.23340248  0.53162853    -0.09500
C607        C  0.79887572  0.27436101  0.50872969     0.29400
C608        C  0.78118727  0.29070511  0.97742201    -0.21500
C609        C  0.73196329  0.26669616  0.96802243    -0.09500
C610        C  0.70055887  0.22571029  0.99089195     0.29400
F611        F  0.65260901  0.20159690  0.98353617    -0.20000
H612        H  0.69311269  0.17795879  0.53937509     0.17700
H613        H  0.80632227  0.32210816  0.96025796     0.17700
F614        F  0.84683346  0.29844716  0.51604600    -0.20000
C615        C  0.72571851  0.20143631  0.73951287    -0.21500
C616        C  0.76721171  0.23344286  0.71770648    -0.09500
C617        C  0.79115821  0.28248246  0.72847620     0.29400
C618        C  0.77388601  0.29870766  0.76025857    -0.21500
C619        C  0.73238243  0.26670492  0.78205467    -0.09500
C620        C  0.70844939  0.21766191  0.77129875     0.29400
F621        F  0.66868398  0.18501471  0.79172422    -0.20000
H622        H  0.70658589  0.16351375  0.73218304     0.17700
H623        H  0.79301943  0.33663117  0.76758848     0.17700
F624        F  0.83094026  0.31512880  0.70806778    -0.20000
Fe625      Fe  0.63159922  0.86914402  0.37479048     1.65800
Fe626      Fe  0.73779599  0.86893278  0.37526811     1.73200
Fe627      Fe  0.63101035  0.76246925  0.37546770     1.54400
O628        O  0.58320872  0.75801890  0.41965047    -0.81800
O629        O  0.74184505  0.82777987  0.32873275    -0.80100
O630        O  0.58603272  0.82840204  0.42130505    -0.84300
O631        O  0.58368923  0.82571721  0.33053310    -0.79200
O632        O  0.67182631  0.75826777  0.42193960    -0.81000
O633        O  0.74312431  0.91735085  0.33118874    -0.83700
C634        C  0.57001085  0.78432052  0.31584331     0.97100
C635        C  0.57008625  0.78602361  0.43448567     1.04500
O636        O  0.66680698  0.83352314  0.37515608    -1.12700
O637        O  0.74212280  0.91408525  0.42189090    -0.75100
O638        O  0.67488352  0.91742296  0.41893588    -0.78600
O639        O  0.58557577  0.75770542  0.32907694    -0.79300
C640        C  0.71569263  0.93022101  0.43441201     0.96000
O641        O  0.67273556  0.91431668  0.32829078    -0.77300
O642        O  0.74246621  0.82566135  0.41941622    -0.82400
C643        C  0.71512237  0.78506593  0.31614345     0.98600
C644        C  0.71438490  0.78472446  0.43468672     1.04500
O645        O  0.67407002  0.75735782  0.33135594    -0.78100
C646        C  0.71541510  0.93054106  0.31587597     1.02800
Fe647      Fe  0.86826125  0.63136414  0.12520726     1.65800
Fe648      Fe  0.76214282  0.63174867  0.12499923     1.73200
Fe649      Fe  0.86904542  0.73813527  0.12488429     1.54400
O650        O  0.91459182  0.74267603  0.17107301    -0.81800
O651        O  0.75755892  0.67503906  0.08084422    -0.80100
O652        O  0.91619341  0.67451546  0.16959425    -0.84100
O653        O  0.91394614  0.67228462  0.07884876    -0.79200
O654        O  0.82618876  0.74322585  0.16920815    -0.81000
O655        O  0.75754474  0.58633967  0.07843844    -0.83700
C656        C  0.92987825  0.71466906  0.06569923     0.97100
C657        C  0.93006054  0.71596252  0.18426131     1.04500
O658        O  0.83314438  0.66707643  0.12504450    -1.12700
O659        O  0.75684555  0.58344561  0.16910492    -0.75100
O660        O  0.82701844  0.58598817  0.17154905    -0.78600
O661        O  0.91670111  0.74263282  0.08053041    -0.79300
C662        C  0.78445561  0.57000364  0.18417356     0.96000
O663        O  0.82497360  0.58338433  0.08087518    -0.77300
O664        O  0.75818903  0.67299434  0.17151748    -0.82400
C665        C  0.78560707  0.71610124  0.06577090     0.98600
C666        C  0.78504608  0.71559861  0.18429316     1.04500
O667        O  0.82812128  0.74256793  0.07862231    -0.78100
C668        C  0.78399267  0.57033865  0.06563905     1.02800
C669        C  0.50884652  0.71886877  0.47746369    -0.21500
C670        C  0.53446419  0.76817965  0.46826221    -0.09500
C671        C  0.52527760  0.79960507  0.49144613     0.29400
C672        C  0.99119279  0.78186326  0.02278714    -0.21500
C673        C  0.96555030  0.73254641  0.03196492    -0.09500
C674        C  0.97478437  0.70113100  0.00881656     0.29400
F675        F  0.95052447  0.65311345  0.01590303    -0.20000
H676        H  0.51480511  0.69369602  0.46008731     0.17700
H677        H  0.98523959  0.80703077  0.04017384     0.17700
F678        F  0.54961393  0.84763187  0.48441138    -0.20000
C679        C  0.01931825  0.79683616  0.26496487    -0.21500
C680        C  0.53436354  0.76652352  0.28204581    -0.09500
C681        C  0.51468966  0.71943974  0.26661739     0.29400
C682        C  0.48090877  0.70344599  0.23501697    -0.21500
C683        C  0.96582262  0.73374788  0.21797335    -0.09500
C684        C  0.98556313  0.78085570  0.23336025     0.29400
F685        F  0.97268951  0.81185914  0.21787448    -0.20000
H686        H  0.03378185  0.83326817  0.27598527     0.17700
H687        H  0.46644464  0.66702032  0.22398260     0.17700
F688        F  0.52763844  0.68847985  0.28207139    -0.20000
C689        C  0.70080995  0.97178398  0.25745578    -0.21500
C690        C  0.73341470  0.96624208  0.28218136    -0.09500
C691        C  0.78289425  0.99525170  0.27437066     0.29400
C692        C  0.79900108  0.52809618  0.24205745    -0.21500
C693        C  0.76645348  0.53426290  0.21781013    -0.09500
C694        C  0.71700980  0.50582670  0.22603186     0.29400
F695        F  0.68399525  0.50950471  0.20291726    -0.20000
H696        H  0.66256098  0.94981751  0.26249158     0.17700
H697        H  0.83722982  0.54962264  0.23670010     0.17700
F698        F  0.81593969  0.99224462  0.29799806    -0.20000
C699        C  0.71416964  0.99625492  0.47329217    -0.21500
C700        C  0.73320749  0.96575581  0.46815983    -0.09500
C701        C  0.76908695  0.96998456  0.99529724     0.29400
C702        C  0.78848254  0.50734561  0.02426708    -0.21500
C703        C  0.76637257  0.53470821  0.03184052    -0.09500
C704        C  0.72744028  0.52725268  0.50704208     0.29400
F705        F  0.70549763  0.55343976  0.51249077    -0.20000
H706        H  0.68140429  0.48851486  0.45692182     0.17700
H707        H  0.81285783  0.00634078  0.04726837     0.17700
F708        F  0.78755897  0.94039113  0.99227926    -0.20000
C709        C  0.71852388  0.70987298  0.02273858    -0.21500
C710        C  0.76775918  0.73384540  0.03208760    -0.09500
C711        C  0.79916560  0.77478446  0.00917036     0.29400
C712        C  0.78146892  0.79110379  0.47784414    -0.21500
C713        C  0.73223664  0.76709892  0.46846574    -0.09500
C714        C  0.70082675  0.72619510  0.49142153     0.29400
F715        F  0.65286224  0.70212897  0.48413960    -0.20000
H716        H  0.69338757  0.67850356  0.03994209     0.17700
H717        H  0.80660476  0.82247336  0.46063899     0.17700
F718        F  0.84712687  0.79885263  0.01647234    -0.20000
C719        C  0.72604533  0.70167640  0.23989407    -0.21500
C720        C  0.76752316  0.73369108  0.21807437    -0.09500
C721        C  0.79144652  0.78273446  0.22882425     0.29400
C722        C  0.77417157  0.79895682  0.26060382    -0.21500
C723        C  0.73268581  0.76694689  0.28241556    -0.09500
C724        C  0.70876904  0.71789876  0.27167559     0.29400
F725        F  0.66899897  0.68524835  0.29209546    -0.20000
H726        H  0.70692627  0.66375013  0.23257213     0.17700
H727        H  0.79328895  0.83688550  0.26791609     0.17700
F728        F  0.83119673  0.81538956  0.20838706    -0.20000
Fe729      Fe  0.63159927  0.86914410  0.87479048     1.65800
Fe730      Fe  0.73779598  0.86893286  0.87526821     1.73200
Fe731      Fe  0.63101040  0.76246932  0.87546781     1.54400
O732        O  0.58320849  0.75801897  0.91965039    -0.81800
O733        O  0.74184496  0.82778015  0.82873258    -0.80100
O734        O  0.58603291  0.82840228  0.92130527    -0.84300
O735        O  0.58368895  0.82571701  0.83053321    -0.79200
O736        O  0.67182609  0.75826790  0.92194000    -0.81000
O737        O  0.74312424  0.91735107  0.83118909    -0.83700
C738        C  0.57001089  0.78432052  0.81584324     0.97100
C739        C  0.57008611  0.78602376  0.93448563     1.04500
O740        O  0.66680702  0.83352319  0.87515615    -1.12700
O741        O  0.74212264  0.91408500  0.92189120    -0.75100
O742        O  0.67488369  0.91742327  0.91893564    -0.78600
O743        O  0.58557602  0.75770539  0.82907675    -0.79300
C744        C  0.71569263  0.93022099  0.93441202     0.96000
O745        O  0.67273544  0.91431646  0.82829060    -0.77300
O746        O  0.74246629  0.82566124  0.91941603    -0.82400
C747        C  0.71512257  0.78506614  0.81614360     0.98600
C748        C  0.71438485  0.78472458  0.93468684     1.04500
O749        O  0.67407033  0.75735792  0.83135634    -0.78100
C750        C  0.71541499  0.93054106  0.81587605     1.02800
Fe751      Fe  0.86826131  0.63136427  0.62520719     1.65800
Fe752      Fe  0.76214289  0.63174882  0.62499922     1.73200
Fe753      Fe  0.86904551  0.73813544  0.62488415     1.54400
O754        O  0.91459184  0.74267615  0.67107279    -0.81800
O755        O  0.75755887  0.67503912  0.58084418    -0.80100
O756        O  0.91619349  0.67451571  0.66959426    -0.84100
O757        O  0.91394628  0.67228469  0.57884867    -0.79200
O758        O  0.82618887  0.74322610  0.66920796    -0.81000
O759        O  0.75754480  0.58633981  0.57843851    -0.83700
C760        C  0.92987839  0.71466911  0.56569918     0.97100
C761        C  0.93006061  0.71596269  0.68426125     1.04500
O762        O  0.83314449  0.66707665  0.62504441    -1.12700
O763        O  0.75684565  0.58344581  0.66910493    -0.75100
O764        O  0.82701852  0.58598836  0.67154895    -0.78600
O765        O  0.91670112  0.74263285  0.58053026    -0.79300
C766        C  0.78445574  0.57000379  0.68417348     0.96000
O767        O  0.82497370  0.58338447  0.58087507    -0.77300
O768        O  0.75818915  0.67299459  0.67151744    -0.82400
C769        C  0.78560708  0.71610129  0.56577076     0.98600
C770        C  0.78504614  0.71559877  0.68429308     1.04500
O771        O  0.82812129  0.74256792  0.57862208    -0.78100
C772        C  0.78399281  0.57033885  0.56563904     1.02800
C773        C  0.50884640  0.71886881  0.97746374    -0.21500
C774        C  0.53446412  0.76817965  0.96826216    -0.09500
C775        C  0.52527774  0.79960516  0.99144605     0.29400
C776        C  0.99119281  0.78186316  0.52278699    -0.21500
C777        C  0.96555043  0.73254653  0.53196498    -0.09500
C778        C  0.97478437  0.70113113  0.50881660     0.29400
F779        F  0.95052449  0.65311343  0.51590301    -0.20000
H780        H  0.51480428  0.69369547  0.96008682     0.17700
H781        H  0.98523890  0.80703196  0.54017438     0.17700
F782        F  0.54961400  0.84763201  0.98441142    -0.20000
C783        C  0.01931791  0.79683630  0.76496545    -0.21500
C784        C  0.53436355  0.76652301  0.78204569    -0.09500
C785        C  0.51469176  0.71944045  0.76661578     0.29400
C786        C  0.48091078  0.70344676  0.73501545    -0.21500
C787        C  0.96582270  0.73374833  0.71797340    -0.09500
C788        C  0.98556253  0.78085539  0.73336065     0.29400
F789        F  0.97268847  0.81185873  0.71787543    -0.20000
H790        H  0.03377962  0.83326447  0.77598519     0.17700
H791        H  0.46644806  0.66702131  0.72397970     0.17700
F792        F  0.52764276  0.68848157  0.78206806    -0.20000
C793        C  0.70080987  0.97178392  0.75745588    -0.21500
C794        C  0.73341474  0.96624222  0.78218155    -0.09500
C795        C  0.78289422  0.99525191  0.77437090     0.29400
C796        C  0.79900140  0.52809624  0.74205739    -0.21500
C797        C  0.76645366  0.53426297  0.71781006    -0.09500
C798        C  0.71701020  0.50582684  0.72603174     0.29400
F799        F  0.68399533  0.50950463  0.70291719    -0.20000
H800        H  0.66256175  0.94981769  0.76249135     0.17700
H801        H  0.83722974  0.54962253  0.73670010     0.17700
F802        F  0.81593971  0.99224493  0.79799833    -0.20000
C803        C  0.71417058  0.99625568  0.97329159    -0.21500
C804        C  0.73320732  0.96575574  0.96815969    -0.09500
C805        C  0.76908820  0.96998569  0.49529660     0.29400
C806        C  0.78848274  0.50734542  0.52426759    -0.21500
C807        C  0.76637250  0.53470831  0.53184054    -0.09500
C808        C  0.72743989  0.52725223  0.00704208     0.29400
F809        F  0.70549707  0.55343903  0.01249114    -0.20000
H810        H  0.68140137  0.48851373  0.95692060     0.17700
H811        H  0.81286095  0.00634251  0.54726816     0.17700
F812        F  0.78756110  0.94039311  0.49227779    -0.20000
C813        C  0.71852411  0.70987304  0.52273826    -0.21500
C814        C  0.76775914  0.73384529  0.53208745    -0.09500
C815        C  0.79916568  0.77478473  0.50917030     0.29400
C816        C  0.78146899  0.79110387  0.97784410    -0.21500
C817        C  0.73223645  0.76709889  0.96846585    -0.09500
C818        C  0.70082670  0.72619541  0.99142172     0.29400
F819        F  0.65286217  0.70212924  0.98413998    -0.20000
H820        H  0.69338652  0.67850187  0.53994239     0.17700
H821        H  0.80660356  0.82247167  0.96063996     0.17700
F822        F  0.84712679  0.79885283  0.51647255    -0.20000
C823        C  0.72604523  0.70167592  0.73989421    -0.21500
C824        C  0.76752347  0.73369156  0.71807440    -0.09500
C825        C  0.79144649  0.78273448  0.72882402     0.29400
C826        C  0.77417180  0.79895757  0.76060377    -0.21500
C827        C  0.73268578  0.76694680  0.78241567    -0.09500
C828        C  0.70876938  0.71789919  0.77167594     0.29400
F829        F  0.66899948  0.68524846  0.79209588    -0.20000
H830        H  0.70692921  0.66375483  0.73257392     0.17700
H831        H  0.79328718  0.83688170  0.76791540     0.17700
F832        F  0.83119663  0.81538988  0.70838671    -0.20000
loop_ 
_geom_bond_atom_site_label_1 
_geom_bond_atom_site_label_2 
_geom_bond_distance 
_geom_bond_site_symmetry_2 
_ccdc_geom_bond_type 
Fe1          O17   2.062       .  S
Fe1           O7   2.063       .  S
Fe1          O14   2.064       .  S
Fe1           O6   2.063       .  S
Fe1          O12   1.978       .  S
Fe2           O5   2.063       .  S
Fe2           O9   2.065       .  S
Fe2          O13   2.062       .  S
Fe2          O18   2.064       .  S
Fe2          O12   1.979       .  S
Fe3          O21   2.065       .  S
Fe3           O8   2.057       .  S
Fe3          O15   2.058       .  S
Fe3           O4   2.064       .  S
Fe3          O12   1.979       .  S
O4           C11   1.269       .  A
O5           C19   1.269       .  A
O6           C11   1.269       .  A
O7           C10   1.269       .  A
O8           C20   1.267       .  A
O9           C22   1.269       .  A
C10          O15   1.267       .  A
C10          C56   1.484       .  S
C11          C46   1.485       .  S
O13          C16   1.269       .  A
O14          C16   1.269       .  A
C16          C76   1.483       .  S
O17          C22   1.269       .  A
O18          C20   1.269       .  A
C19          O21   1.269       .  A
C19          C99   1.486       .  S
C20          C89   1.483       .  S
C22          C66   1.484       .  S
Fe23         O39   2.063       .  S
Fe23         O29   2.064       .  S
Fe23         O36   2.062       .  S
Fe23         O28   2.062       .  S
Fe23         O34   1.978       .  S
Fe24         O27   2.064       .  S
Fe24         O31   2.061       .  S
Fe24         O35   2.067       .  S
Fe24         O40   2.063       .  S
Fe24         O34   1.979       .  S
Fe25         O43   2.057       .  S
Fe25         O30   2.065       .  S
Fe25         O37   2.064       .  S
Fe25         O26   2.058       .  S
Fe25         O34   1.979       .  S
O26          C33   1.267       .  A
O27          C41   1.269       .  A
O28          C33   1.269       .  A
O29          C32   1.269       .  A
O30          C42   1.269       .  A
O31          C44   1.268       .  A
C32          O37   1.269       .  A
C32          C49   1.486       .  S
C33          C59   1.484       .  S
O35          C38   1.269       .  A
O36          C38   1.269       .  A
C38          C69   1.485       .  S
O39          C44   1.269       .  A
O40          C42   1.269       .  A
C41          O43   1.267       .  A
C41          C86   1.483       .  S
C42          C96   1.486       .  S
C44          C79   1.480       .  S
C45          C46   1.407       .  A
C45         C570   1.398   1_455  A
C45          H52   1.083       .  S
C46          C47   1.409       .  A
C47         C568   1.398   1_455  A
C47          F54   1.358       .  S
C48          C49   1.407       .  A
C48         C567   1.398   1_554  A
C48          H53   1.083       .  S
C49          C50   1.409       .  A
C50         C565   1.398   1_554  A
C50          F51   1.358       .  S
C55          C60   1.396       .  A
C55         C472   1.406       .  A
C55          H62   1.083       .  S
C56          C57   1.410       .  A
C56         C471   1.406       .  A
C57          C58   1.396   1_455  A
C57          F64   1.358       .  S
C58         C475   1.406       .  A
C58          H63   1.083       .  S
C59          C60   1.410       .  A
C59         C474   1.406       .  A
C60          F61   1.357       .  S
C65          C66   1.406       .  A
C65         C278   1.398       .  A
C65          H72   1.083       .  S
C66          C67   1.409       .  A
C67         C276   1.398       .  A
C67          F74   1.358       .  S
C68          C69   1.406       .  A
C68         C275   1.398   1_545  A
C68          H73   1.083       .  S
C69          C70   1.409       .  A
C70         C273   1.398   1_545  A
C70          F71   1.357       .  S
C75          C76   1.406       .  A
C75         C288   1.397       .  A
C75         H290   1.083       .  S
C76         C181   1.409       .  A
C77         C180   1.409       .  A
C77         C286   1.397   1_556  A
C77          F84   1.358       .  S
C78          C79   1.405       .  A
C78         C285   1.397   1_544  A
C78         H291   1.083       .  S
C79         C184   1.408       .  A
C80         C283   1.397   1_545  A
C80         C183   1.408       .  A
C80          F81   1.358       .  S
H82         C283   1.083       .  S
H83         C286   1.083       .  S
C85          C86   1.406       .  A
C85         C194   1.397   1_554  A
C85          H92   1.083       .  S
C86          C87   1.409       .  A
C87         C192   1.397   1_554  A
C87          F94   1.358       .  S
C88          C89   1.406       .  A
C88         C191   1.397       .  A
C88          H93   1.083       .  S
C89          C90   1.409       .  A
C90         C189   1.397       .  A
C90          F91   1.358       .  S
C95          C96   1.406       .  A
C95         C100   1.398       .  A
C95         H102   1.082       .  S
C96          C97   1.410       .  A
C97          C98   1.398       .  A
C97         F104   1.357       .  S
C98          C99   1.406       .  A
C98         H103   1.083       .  S
C99         C100   1.410       .  A
C100        F101   1.357       .  S
Fe105       O121   2.062       .  S
Fe105       O111   2.063       .  S
Fe105       O118   2.064       .  S
Fe105       O110   2.063       .  S
Fe105       O116   1.978       .  S
Fe106       O109   2.063       .  S
Fe106       O113   2.065       .  S
Fe106       O117   2.062       .  S
Fe106       O122   2.064       .  S
Fe106       O116   1.979       .  S
Fe107       O125   2.065       .  S
Fe107       O112   2.057       .  S
Fe107       O119   2.058       .  S
Fe107       O108   2.064       .  S
Fe107       O116   1.979       .  S
O108        C115   1.269       .  A
O109        C123   1.269       .  A
O110        C115   1.269       .  A
O111        C114   1.269       .  A
O112        C124   1.267       .  A
O113        C126   1.269       .  A
C114        O119   1.267       .  A
C114        C160   1.484       .  S
C115        C150   1.485       .  S
O117        C120   1.269       .  A
O118        C120   1.269       .  A
C120        C180   1.483       .  S
O121        C126   1.269       .  A
O122        C124   1.269       .  A
C123        O125   1.269       .  A
C123        C203   1.486       .  S
C124        C193   1.483       .  S
C126        C170   1.484       .  S
Fe127       O143   2.063       .  S
Fe127       O133   2.064       .  S
Fe127       O140   2.062       .  S
Fe127       O132   2.062       .  S
Fe127       O138   1.978       .  S
Fe128       O131   2.064       .  S
Fe128       O135   2.061       .  S
Fe128       O139   2.067       .  S
Fe128       O144   2.063       .  S
Fe128       O138   1.979       .  S
Fe129       O147   2.057       .  S
Fe129       O134   2.065       .  S
Fe129       O141   2.064       .  S
Fe129       O130   2.058       .  S
Fe129       O138   1.979       .  S
O130        C137   1.267       .  A
O131        C145   1.269       .  A
O132        C137   1.269       .  A
O133        C136   1.269       .  A
O134        C146   1.269       .  A
O135        C148   1.268       .  A
C136        O141   1.269       .  A
C136        C153   1.486       .  S
C137        C163   1.484       .  S
O139        C142   1.269       .  A
O140        C142   1.269       .  A
C142        C173   1.485       .  S
O143        C148   1.269       .  A
O144        C146   1.269       .  A
C145        O147   1.267       .  A
C145        C190   1.483       .  S
C146        C200   1.486       .  S
C148        C183   1.480       .  S
C149        C150   1.407       .  A
C149        C466   1.398   1_456  A
C149        H156   1.083       .  S
C150        C151   1.409       .  A
C151        C464   1.398   1_456  A
C151        F158   1.358       .  S
C152        C463   1.398       .  A
C152        C153   1.407       .  A
C152        H157   1.083       .  S
C153        C154   1.409       .  A
C154        C461   1.398       .  A
C154        F155   1.358       .  S
C159        C576   1.406       .  A
C159        C164   1.396       .  A
C159        H166   1.083       .  S
C160        C575   1.406       .  A
C160        C161   1.410       .  A
C161        C162   1.396   1_455  A
C161        F168   1.358       .  S
C162        C579   1.406       .  A
C162        H167   1.083       .  S
C163        C578   1.406       .  A
C163        C164   1.410       .  A
C164        F165   1.357       .  S
C169        C170   1.406       .  A
C169        C382   1.398       .  A
C169        H176   1.083       .  S
C170        C171   1.409       .  A
C171        C380   1.398       .  A
C171        F178   1.358       .  S
C172        C379   1.398   1_545  A
C172        C173   1.406       .  A
C172        H177   1.083       .  S
C173        C174   1.409       .  A
C174        C377   1.398   1_545  A
C174        F175   1.357       .  S
C179        C180   1.406       .  A
C179        C392   1.397   1_556  A
C179        H394   1.083       .  S
C181        C390   1.397       .  A
C181        F188   1.358       .  S
C182        C389   1.397   1_545  A
C182        C183   1.405       .  A
C182        H395   1.083       .  S
C184        C387   1.397   1_544  A
C184        F185   1.358       .  S
H186        C387   1.083       .  S
H187        C390   1.083       .  S
C189        C190   1.406       .  A
C189        H196   1.083       .  S
C190        C191   1.409       .  A
C191        F198   1.358       .  S
C192        C193   1.406       .  A
C192        H197   1.083       .  S
C193        C194   1.409       .  A
C194        F195   1.358       .  S
C199        C200   1.406       .  A
C199        C204   1.398       .  A
C199        H206   1.083       .  S
C200        C201   1.410       .  A
C201        C202   1.398       .  A
C201        F208   1.357       .  S
C202        C203   1.406       .  A
C202        H207   1.083       .  S
C203        C204   1.410       .  A
C204        F205   1.357       .  S
Fe209       O225   2.062       .  S
Fe209       O215   2.062       .  S
Fe209       O222   2.063       .  S
Fe209       O214   2.064       .  S
Fe209       O220   1.978       .  S
Fe210       O213   2.063       .  S
Fe210       O217   2.067       .  S
Fe210       O221   2.060       .  S
Fe210       O226   2.064       .  S
Fe210       O220   1.979       .  S
Fe211       O229   2.065       .  S
Fe211       O216   2.057       .  S
Fe211       O223   2.058       .  S
Fe211       O212   2.064       .  S
Fe211       O220   1.979       .  S
O212        C219   1.269       .  A
O213        C227   1.269       .  A
O214        C219   1.269       .  A
O215        C218   1.269       .  A
O216        C228   1.267       .  A
O217        C230   1.269       .  A
C218        O223   1.267       .  A
C218        C264   1.484       .  S
C219        C254   1.486       .  S
O221        C224   1.268       .  A
O222        C224   1.269       .  A
C224        C284   1.480       .  S
O225        C230   1.269       .  A
O226        C228   1.269       .  A
C227        O229   1.269       .  A
C227        C307   1.486       .  S
C228        C297   1.483       .  S
C230        C274   1.485       .  S
Fe231       O247   2.064       .  S
Fe231       O237   2.063       .  S
Fe231       O244   2.062       .  S
Fe231       O236   2.063       .  S
Fe231       O242   1.978       .  S
Fe232       O235   2.064       .  S
Fe232       O239   2.062       .  S
Fe232       O243   2.065       .  S
Fe232       O248   2.063       .  S
Fe232       O242   1.979       .  S
Fe233       O251   2.057       .  S
Fe233       O238   2.065       .  S
Fe233       O245   2.064       .  S
Fe233       O234   2.058       .  S
Fe233       O242   1.979       .  S
O234        C241   1.267       .  A
O235        C249   1.269       .  A
O236        C241   1.269       .  A
O237        C240   1.269       .  A
O238        C250   1.269       .  A
O239        C252   1.269       .  A
C240        O245   1.269       .  A
C240        C257   1.485       .  S
C241        C267   1.484       .  S
O243        C246   1.269       .  A
O244        C246   1.269       .  A
C246        C277   1.484       .  S
O247        C252   1.269       .  A
O248        C250   1.269       .  A
C249        O251   1.267       .  A
C249        C294   1.483       .  S
C250        C304   1.486       .  S
C252        C287   1.483       .  S
C253        C254   1.407       .  A
C253        C778   1.398   1_455  A
C253        H260   1.083       .  S
C254        C255   1.409       .  A
C255        C776   1.398   1_455  A
C255        F262   1.358       .  S
C256        C775   1.398   1_554  A
C256        C257   1.407       .  A
C256        H261   1.083       .  S
C257        C258   1.409       .  A
C258        C773   1.398   1_554  A
C258        F259   1.358       .  S
C263        C680   1.406       .  A
C263        C268   1.396       .  A
C263        H270   1.083       .  S
C264        C679   1.406       .  A
C264        C265   1.410       .  A
C265        C266   1.397   1_455  A
C265        F272   1.357       .  S
C266        C683   1.406       .  A
C266        H271   1.083       .  S
C267        C682   1.406       .  A
C267        C268   1.410       .  A
C268        F269   1.357       .  S
C273        C274   1.406       .  A
C273        H280   1.083       .  S
C274        C275   1.409       .  A
C275        F282   1.357       .  S
C276        C277   1.406       .  A
C276        H281   1.083       .  S
C277        C278   1.409       .  A
C278        F279   1.358       .  S
C283        C284   1.406       .  A
C284        C389   1.408       .  A
C285        C388   1.408       .  A
C285        F292   1.358       .  S
C286        C287   1.406       .  A
C287        C392   1.409       .  A
C288        C391   1.409       .  A
C288        F289   1.358       .  S
C293        C294   1.406       .  A
C293        C402   1.397   1_554  A
C293        H300   1.083       .  S
C294        C295   1.409       .  A
C295        C400   1.397   1_554  A
C295        F302   1.358       .  S
C296        C399   1.397       .  A
C296        C297   1.406       .  A
C296        H301   1.083       .  S
C297        C298   1.409       .  A
C298        C397   1.397       .  A
C298        F299   1.358       .  S
C303        C304   1.406       .  A
C303        C308   1.398       .  A
C303        H310   1.083       .  S
C304        C305   1.410       .  A
C305        C306   1.398       .  A
C305        F312   1.357       .  S
C306        C307   1.406       .  A
C306        H311   1.083       .  S
C307        C308   1.410       .  A
C308        F309   1.357       .  S
Fe313       O329   2.062       .  S
Fe313       O319   2.062       .  S
Fe313       O326   2.063       .  S
Fe313       O318   2.064       .  S
Fe313       O324   1.978       .  S
Fe314       O317   2.063       .  S
Fe314       O321   2.067       .  S
Fe314       O325   2.060       .  S
Fe314       O330   2.064       .  S
Fe314       O324   1.979       .  S
Fe315       O333   2.065       .  S
Fe315       O320   2.057       .  S
Fe315       O327   2.058       .  S
Fe315       O316   2.064       .  S
Fe315       O324   1.979       .  S
O316        C323   1.269       .  A
O317        C331   1.269       .  A
O318        C323   1.269       .  A
O319        C322   1.269       .  A
O320        C332   1.267       .  A
O321        C334   1.269       .  A
C322        O327   1.267       .  A
C322        C368   1.484       .  S
C323        C358   1.486       .  S
O325        C328   1.268       .  A
O326        C328   1.269       .  A
C328        C388   1.480       .  S
O329        C334   1.269       .  A
O330        C332   1.269       .  A
C331        O333   1.269       .  A
C331        C411   1.486       .  S
C332        C401   1.483       .  S
C334        C378   1.485       .  S
Fe335       O351   2.064       .  S
Fe335       O341   2.063       .  S
Fe335       O348   2.062       .  S
Fe335       O340   2.063       .  S
Fe335       O346   1.978       .  S
Fe336       O339   2.064       .  S
Fe336       O343   2.062       .  S
Fe336       O347   2.065       .  S
Fe336       O352   2.063       .  S
Fe336       O346   1.979       .  S
Fe337       O355   2.057       .  S
Fe337       O342   2.065       .  S
Fe337       O349   2.064       .  S
Fe337       O338   2.058       .  S
Fe337       O346   1.979       .  S
O338        C345   1.267       .  A
O339        C353   1.269       .  A
O340        C345   1.269       .  A
O341        C344   1.269       .  A
O342        C354   1.269       .  A
O343        C356   1.269       .  A
C344        O349   1.269       .  A
C344        C361   1.485       .  S
C345        C371   1.484       .  S
O347        C350   1.269       .  A
O348        C350   1.269       .  A
C350        C381   1.484       .  S
O351        C356   1.269       .  A
O352        C354   1.269       .  A
C353        O355   1.267       .  A
C353        C398   1.483       .  S
C354        C408   1.486       .  S
C356        C391   1.483       .  S
C357        C358   1.407       .  A
C357        C674   1.398   1_456  A
C357        H364   1.083       .  S
C358        C359   1.409       .  A
C359        C672   1.398   1_456  A
C359        F366   1.358       .  S
C360        C671   1.398       .  A
C360        C361   1.407       .  A
C360        H365   1.083       .  S
C361        C362   1.409       .  A
C362        C669   1.398       .  A
C362        F363   1.358       .  S
C367        C784   1.406       .  A
C367        C372   1.396       .  A
C367        H374   1.083       .  S
C368        C783   1.406       .  A
C368        C369   1.410       .  A
C369        C370   1.397   1_455  A
C369        F376   1.358       .  S
C370        C787   1.406       .  A
C370        H375   1.083       .  S
C371        C786   1.406       .  A
C371        C372   1.410       .  A
C372        F373   1.357       .  S
C377        C378   1.406       .  A
C377        H384   1.083       .  S
C378        C379   1.409       .  A
C379        F386   1.357       .  S
C380        C381   1.406       .  A
C380        H385   1.083       .  S
C381        C382   1.409       .  A
C382        F383   1.358       .  S
C387        C388   1.406       .  A
C389        F396   1.358       .  S
C390        C391   1.406       .  A
C392        F393   1.358       .  S
C397        C398   1.406       .  A
C397        H404   1.083       .  S
C398        C399   1.409       .  A
C399        F406   1.358       .  S
C400        C401   1.406       .  A
C400        H405   1.083       .  S
C401        C402   1.409       .  A
C402        F403   1.358       .  S
C407        C408   1.406       .  A
C407        C412   1.398       .  A
C407        H414   1.083       .  S
C408        C409   1.410       .  A
C409        C410   1.398       .  A
C409        F416   1.357       .  S
C410        C411   1.406       .  A
C410        H415   1.082       .  S
C411        C412   1.410       .  A
C412        F413   1.357       .  S
Fe417       O433   2.062       .  S
Fe417       O423   2.063       .  S
Fe417       O430   2.064       .  S
Fe417       O422   2.063       .  S
Fe417       O428   1.978       .  S
Fe418       O421   2.063       .  S
Fe418       O425   2.065       .  S
Fe418       O429   2.062       .  S
Fe418       O434   2.064       .  S
Fe418       O428   1.979       .  S
Fe419       O437   2.065       .  S
Fe419       O424   2.057       .  S
Fe419       O431   2.058       .  S
Fe419       O420   2.064       .  S
Fe419       O428   1.979       .  S
O420        C427   1.269       .  A
O421        C435   1.269       .  A
O422        C427   1.269       .  A
O423        C426   1.269       .  A
O424        C436   1.267       .  A
O425        C438   1.269       .  A
C426        O431   1.267       .  A
C426        C472   1.484       .  S
C427        C462   1.485       .  S
O429        C432   1.269       .  A
O430        C432   1.269       .  A
C432        C492   1.483       .  S
O433        C438   1.269       .  A
O434        C436   1.269       .  A
C435        O437   1.269       .  A
C435        C515   1.486       .  S
C436        C505   1.483       .  S
C438        C482   1.484       .  S
Fe439       O455   2.063       .  S
Fe439       O445   2.064       .  S
Fe439       O452   2.062       .  S
Fe439       O444   2.062       .  S
Fe439       O450   1.978       .  S
Fe440       O443   2.064       .  S
Fe440       O447   2.061       .  S
Fe440       O451   2.067       .  S
Fe440       O456   2.063       .  S
Fe440       O450   1.979       .  S
Fe441       O459   2.057       .  S
Fe441       O446   2.065       .  S
Fe441       O453   2.064       .  S
Fe441       O442   2.058       .  S
Fe441       O450   1.979       .  S
O442        C449   1.267       .  A
O443        C457   1.269       .  A
O444        C449   1.269       .  A
O445        C448   1.269       .  A
O446        C458   1.269       .  A
O447        C460   1.268       .  A
C448        O453   1.269       .  A
C448        C465   1.486       .  S
C449        C475   1.484       .  S
O451        C454   1.269       .  A
O452        C454   1.269       .  A
C454        C485   1.485       .  S
O455        C460   1.269       .  A
O456        C458   1.269       .  A
C457        O459   1.267       .  A
C457        C502   1.483       .  S
C458        C512   1.486       .  S
C460        C495   1.480       .  S
C461        C462   1.407       .  A
C461        H468   1.083       .  S
C462        C463   1.409       .  A
C463        F470   1.358       .  S
C464        C465   1.407       .  A
C464        H469   1.083       .  S
C465        C466   1.409       .  A
C466        F467   1.358       .  S
C471        C476   1.396   1_455  A
C471        H478   1.083       .  S
C472        C473   1.410       .  A
C473        C474   1.396       .  A
C473        F480   1.358       .  S
C474        H479   1.083       .  S
C475        C476   1.410       .  A
C476        F477   1.357       .  S
C481        C482   1.406       .  A
C481        C694   1.398       .  A
C481        H488   1.083       .  S
C482        C483   1.409       .  A
C483        C692   1.398       .  A
C483        F490   1.358       .  S
C484        C691   1.398   1_545  A
C484        C485   1.406       .  A
C484        H489   1.083       .  S
C485        C486   1.409       .  A
C486        C689   1.398   1_545  A
C486        F487   1.357       .  S
C491        C492   1.406       .  A
C491        C704   1.397       .  A
C491        H706   1.083       .  S
C492        C597   1.409       .  A
C493        C596   1.409       .  A
C493        C702   1.397   1_556  A
C493        F500   1.358       .  S
C494        C701   1.397   1_544  A
C494        C495   1.405       .  A
C494        H707   1.083       .  S
C495        C600   1.408       .  A
C496        C699   1.397   1_545  A
C496        C599   1.408       .  A
C496        F497   1.358       .  S
H498        C699   1.083       .  S
H499        C702   1.083       .  S
C501        C502   1.406       .  A
C501        C610   1.397   1_554  A
C501        H508   1.083       .  S
C502        C503   1.409       .  A
C503        C608   1.397   1_554  A
C503        F510   1.358       .  S
C504        C607   1.397       .  A
C504        C505   1.406       .  A
C504        H509   1.083       .  S
C505        C506   1.409       .  A
C506        C605   1.397       .  A
C506        F507   1.358       .  S
C511        C512   1.406       .  A
C511        C516   1.398       .  A
C511        H518   1.082       .  S
C512        C513   1.410       .  A
C513        C514   1.398       .  A
C513        F520   1.357       .  S
C514        C515   1.406       .  A
C514        H519   1.083       .  S
C515        C516   1.410       .  A
C516        F517   1.357       .  S
Fe521       O537   2.062       .  S
Fe521       O527   2.063       .  S
Fe521       O534   2.064       .  S
Fe521       O526   2.063       .  S
Fe521       O532   1.978       .  S
Fe522       O525   2.063       .  S
Fe522       O529   2.065       .  S
Fe522       O533   2.062       .  S
Fe522       O538   2.064       .  S
Fe522       O532   1.979       .  S
Fe523       O541   2.065       .  S
Fe523       O528   2.057       .  S
Fe523       O535   2.058       .  S
Fe523       O524   2.064       .  S
Fe523       O532   1.979       .  S
O524        C531   1.269       .  A
O525        C539   1.269       .  A
O526        C531   1.269       .  A
O527        C530   1.269       .  A
O528        C540   1.267       .  A
O529        C542   1.269       .  A
C530        O535   1.267       .  A
C530        C576   1.484       .  S
C531        C566   1.485       .  S
O533        C536   1.269       .  A
O534        C536   1.269       .  A
C536        C596   1.483       .  S
O537        C542   1.269       .  A
O538        C540   1.269       .  A
C539        O541   1.269       .  A
C539        C619   1.486       .  S
C540        C609   1.483       .  S
C542        C586   1.484       .  S
Fe543       O559   2.063       .  S
Fe543       O549   2.064       .  S
Fe543       O556   2.062       .  S
Fe543       O548   2.062       .  S
Fe543       O554   1.978       .  S
Fe544       O547   2.064       .  S
Fe544       O551   2.061       .  S
Fe544       O555   2.067       .  S
Fe544       O560   2.063       .  S
Fe544       O554   1.979       .  S
Fe545       O563   2.057       .  S
Fe545       O550   2.065       .  S
Fe545       O557   2.064       .  S
Fe545       O546   2.058       .  S
Fe545       O554   1.979       .  S
O546        C553   1.267       .  A
O547        C561   1.269       .  A
O548        C553   1.269       .  A
O549        C552   1.269       .  A
O550        C562   1.269       .  A
O551        C564   1.268       .  A
C552        O557   1.269       .  A
C552        C569   1.486       .  S
C553        C579   1.484       .  S
O555        C558   1.269       .  A
O556        C558   1.269       .  A
C558        C589   1.485       .  S
O559        C564   1.269       .  A
O560        C562   1.269       .  A
C561        O563   1.267       .  A
C561        C606   1.483       .  S
C562        C616   1.486       .  S
C564        C599   1.480       .  S
C565        C566   1.407       .  A
C565        H572   1.083       .  S
C566        C567   1.409       .  A
C567        F574   1.358       .  S
C568        C569   1.407       .  A
C568        H573   1.083       .  S
C569        C570   1.409       .  A
C570        F571   1.358       .  S
C575        C580   1.396   1_455  A
C575        H582   1.083       .  S
C576        C577   1.410       .  A
C577        C578   1.396       .  A
C577        F584   1.358       .  S
C578        H583   1.083       .  S
C579        C580   1.410       .  A
C580        F581   1.357       .  S
C585        C586   1.406       .  A
C585        C798   1.398       .  A
C585        H592   1.083       .  S
C586        C587   1.409       .  A
C587        C796   1.398       .  A
C587        F594   1.358       .  S
C588        C795   1.398   1_545  A
C588        C589   1.406       .  A
C588        H593   1.083       .  S
C589        C590   1.409       .  A
C590        C793   1.398   1_545  A
C590        F591   1.357       .  S
C595        C596   1.406       .  A
C595        C808   1.397   1_556  A
C595        H810   1.083       .  S
C597        C806   1.397       .  A
C597        F604   1.358       .  S
C598        C805   1.397   1_545  A
C598        C599   1.405       .  A
C598        H811   1.083       .  S
C600        C803   1.397   1_544  A
C600        F601   1.358       .  S
H602        C803   1.083       .  S
H603        C806   1.083       .  S
C605        C606   1.406       .  A
C605        H612   1.083       .  S
C606        C607   1.409       .  A
C607        F614   1.358       .  S
C608        C609   1.406       .  A
C608        H613   1.083       .  S
C609        C610   1.409       .  A
C610        F611   1.358       .  S
C615        C616   1.406       .  A
C615        C620   1.398       .  A
C615        H622   1.083       .  S
C616        C617   1.410       .  A
C617        C618   1.398       .  A
C617        F624   1.357       .  S
C618        C619   1.406       .  A
C618        H623   1.083       .  S
C619        C620   1.410       .  A
C620        F621   1.357       .  S
Fe625       O641   2.062       .  S
Fe625       O631   2.062       .  S
Fe625       O638   2.063       .  S
Fe625       O630   2.064       .  S
Fe625       O636   1.978       .  S
Fe626       O629   2.063       .  S
Fe626       O633   2.067       .  S
Fe626       O637   2.060       .  S
Fe626       O642   2.064       .  S
Fe626       O636   1.979       .  S
Fe627       O645   2.065       .  S
Fe627       O632   2.057       .  S
Fe627       O639   2.058       .  S
Fe627       O628   2.064       .  S
Fe627       O636   1.979       .  S
O628        C635   1.269       .  A
O629        C643   1.269       .  A
O630        C635   1.269       .  A
O631        C634   1.269       .  A
O632        C644   1.267       .  A
O633        C646   1.269       .  A
C634        O639   1.267       .  A
C634        C680   1.484       .  S
C635        C670   1.486       .  S
O637        C640   1.268       .  A
O638        C640   1.269       .  A
C640        C700   1.480       .  S
O641        C646   1.269       .  A
O642        C644   1.269       .  A
C643        O645   1.269       .  A
C643        C723   1.486       .  S
C644        C713   1.483       .  S
C646        C690   1.485       .  S
Fe647       O663   2.064       .  S
Fe647       O653   2.063       .  S
Fe647       O660   2.062       .  S
Fe647       O652   2.063       .  S
Fe647       O658   1.978       .  S
Fe648       O651   2.064       .  S
Fe648       O655   2.062       .  S
Fe648       O659   2.065       .  S
Fe648       O664   2.063       .  S
Fe648       O658   1.979       .  S
Fe649       O667   2.057       .  S
Fe649       O654   2.065       .  S
Fe649       O661   2.064       .  S
Fe649       O650   2.058       .  S
Fe649       O658   1.979       .  S
O650        C657   1.267       .  A
O651        C665   1.269       .  A
O652        C657   1.269       .  A
O653        C656   1.269       .  A
O654        C666   1.269       .  A
O655        C668   1.269       .  A
C656        O661   1.269       .  A
C656        C673   1.485       .  S
C657        C683   1.484       .  S
O659        C662   1.269       .  A
O660        C662   1.269       .  A
C662        C693   1.484       .  S
O663        C668   1.269       .  A
O664        C666   1.269       .  A
C665        O667   1.267       .  A
C665        C710   1.483       .  S
C666        C720   1.486       .  S
C668        C703   1.483       .  S
C669        C670   1.407       .  A
C669        H676   1.083       .  S
C670        C671   1.409       .  A
C671        F678   1.358       .  S
C672        C673   1.407       .  A
C672        H677   1.083       .  S
C673        C674   1.409       .  A
C674        F675   1.358       .  S
C679        C684   1.396   1_455  A
C679        H686   1.083       .  S
C680        C681   1.410       .  A
C681        C682   1.397       .  A
C681        F688   1.358       .  S
C682        H687   1.083       .  S
C683        C684   1.410       .  A
C684        F685   1.357       .  S
C689        C690   1.406       .  A
C689        H696   1.083       .  S
C690        C691   1.409       .  A
C691        F698   1.357       .  S
C692        C693   1.406       .  A
C692        H697   1.083       .  S
C693        C694   1.409       .  A
C694        F695   1.358       .  S
C699        C700   1.406       .  A
C700        C805   1.408       .  A
C701        C804   1.408       .  A
C701        F708   1.358       .  S
C702        C703   1.406       .  A
C703        C808   1.409       .  A
C704        C807   1.409       .  A
C704        F705   1.358       .  S
C709        C710   1.406       .  A
C709        C818   1.397   1_554  A
C709        H716   1.083       .  S
C710        C711   1.409       .  A
C711        C816   1.397   1_554  A
C711        F718   1.358       .  S
C712        C815   1.397       .  A
C712        C713   1.406       .  A
C712        H717   1.083       .  S
C713        C714   1.409       .  A
C714        C813   1.397       .  A
C714        F715   1.358       .  S
C719        C720   1.406       .  A
C719        C724   1.398       .  A
C719        H726   1.083       .  S
C720        C721   1.410       .  A
C721        C722   1.398       .  A
C721        F728   1.357       .  S
C722        C723   1.406       .  A
C722        H727   1.083       .  S
C723        C724   1.410       .  A
C724        F725   1.357       .  S
Fe729       O745   2.062       .  S
Fe729       O735   2.062       .  S
Fe729       O742   2.063       .  S
Fe729       O734   2.064       .  S
Fe729       O740   1.978       .  S
Fe730       O733   2.063       .  S
Fe730       O737   2.067       .  S
Fe730       O741   2.060       .  S
Fe730       O746   2.064       .  S
Fe730       O740   1.979       .  S
Fe731       O749   2.065       .  S
Fe731       O736   2.057       .  S
Fe731       O743   2.058       .  S
Fe731       O732   2.064       .  S
Fe731       O740   1.979       .  S
O732        C739   1.269       .  A
O733        C747   1.269       .  A
O734        C739   1.269       .  A
O735        C738   1.269       .  A
O736        C748   1.267       .  A
O737        C750   1.269       .  A
C738        O743   1.267       .  A
C738        C784   1.484       .  S
C739        C774   1.486       .  S
O741        C744   1.268       .  A
O742        C744   1.269       .  A
C744        C804   1.480       .  S
O745        C750   1.269       .  A
O746        C748   1.269       .  A
C747        O749   1.269       .  A
C747        C827   1.486       .  S
C748        C817   1.483       .  S
C750        C794   1.485       .  S
Fe751       O767   2.064       .  S
Fe751       O757   2.063       .  S
Fe751       O764   2.062       .  S
Fe751       O756   2.063       .  S
Fe751       O762   1.978       .  S
Fe752       O755   2.064       .  S
Fe752       O759   2.062       .  S
Fe752       O763   2.065       .  S
Fe752       O768   2.063       .  S
Fe752       O762   1.979       .  S
Fe753       O771   2.057       .  S
Fe753       O758   2.065       .  S
Fe753       O765   2.064       .  S
Fe753       O754   2.058       .  S
Fe753       O762   1.979       .  S
O754        C761   1.267       .  A
O755        C769   1.269       .  A
O756        C761   1.269       .  A
O757        C760   1.269       .  A
O758        C770   1.269       .  A
O759        C772   1.269       .  A
C760        O765   1.269       .  A
C760        C777   1.485       .  S
C761        C787   1.484       .  S
O763        C766   1.269       .  A
O764        C766   1.269       .  A
C766        C797   1.484       .  S
O767        C772   1.269       .  A
O768        C770   1.269       .  A
C769        O771   1.267       .  A
C769        C814   1.483       .  S
C770        C824   1.486       .  S
C772        C807   1.483       .  S
C773        C774   1.407       .  A
C773        H780   1.083       .  S
C774        C775   1.409       .  A
C775        F782   1.358       .  S
C776        C777   1.407       .  A
C776        H781   1.083       .  S
C777        C778   1.409       .  A
C778        F779   1.358       .  S
C783        C788   1.396   1_455  A
C783        H790   1.083       .  S
C784        C785   1.410       .  A
C785        C786   1.397       .  A
C785        F792   1.358       .  S
C786        H791   1.083       .  S
C787        C788   1.410       .  A
C788        F789   1.357       .  S
C793        C794   1.406       .  A
C793        H800   1.083       .  S
C794        C795   1.409       .  A
C795        F802   1.357       .  S
C796        C797   1.406       .  A
C796        H801   1.083       .  S
C797        C798   1.409       .  A
C798        F799   1.358       .  S
C803        C804   1.406       .  A
C805        F812   1.358       .  S
C806        C807   1.406       .  A
C808        F809   1.358       .  S
C813        C814   1.406       .  A
C813        H820   1.083       .  S
C814        C815   1.409       .  A
C815        F822   1.358       .  S
C816        C817   1.406       .  A
C816        H821   1.083       .  S
C817        C818   1.409       .  A
C818        F819   1.358       .  S
C823        C824   1.406       .  A
C823        C828   1.398       .  A
C823        H830   1.082       .  S
C824        C825   1.410       .  A
C825        C826   1.398       .  A
C825        F832   1.357       .  S
C826        C827   1.406       .  A
C826        H831   1.082       .  S
C827        C828   1.410       .  A
C828        F829   1.357       .  S
