geometry optimzed in LAMMPS
_audit_creation_date              2020-11-30 
_audit_creation_method            'lammps2cif' 
_symmetry_space_group_name_H-M    'P1' 
_symmetry_Int_Tables_number       1 
_symmetry_cell_setting            triclinic 
loop_ 
_symmetry_equiv_pos_as_xyz 
  x,y,z 
_cell_length_a                    38.78867323 
_cell_length_b                    38.787576617771734 
_cell_length_c                    30.268076910882527 
_cell_angle_alpha                 89.98960174725572 
_cell_angle_beta                  90.12477993022003 
_cell_angle_gamma                 119.9974076813962 
loop_ 
_atom_site_label 
_atom_site_type_symbol 
_atom_site_fract_x 
_atom_site_fract_y 
_atom_site_fract_z 
_atom_site_charge 
C1          C  0.29377060  0.13524982  0.01693406     0.03800
C2          C  0.30226240  0.17494035  0.01700275    -0.12400
C3          C  0.34180260  0.20644809  0.35011127     0.01300
C4          C  0.37300149  0.19795457  0.35024640    -0.10900
C5          C  0.36495992  0.15840841  0.35016656     0.03800
C6          C  0.32527395  0.12720902  0.01705638    -0.10300
H7          H  0.27805475  0.18130372  0.01623934     0.09400
H8          H  0.40356915  0.22215288  0.34942089     0.06900
H9          H  0.31890562  0.09663646  0.01633432     0.06700
C10         C  0.13521856  0.29354209  0.31640514     0.03800
C11         C  0.12718408  0.32505161  0.31633641    -0.12400
C12         C  0.15838889  0.36473899  0.31648987     0.01300
C13         C  0.19792697  0.37276535  0.31626387    -0.10900
C14         C  0.20641214  0.34156163  0.31632493     0.03800
C15         C  0.17490352  0.30202187  0.31618357    -0.10300
H16         H  0.09661862  0.31868998  0.31716693     0.09400
H17         H  0.22213701  0.40333288  0.31704378     0.06900
H18         H  0.18126535  0.27781249  0.31690495     0.06700
C19         C  0.36796865  0.36788499  0.33297044    -0.01800
C20         C  0.00009421  0.13205221  0.33330389    -0.01800
C21         C  0.13222454  0.00000662  0.33371193    -0.01800
O22         O  0.02579547  0.07604772  0.20201412    -0.84700
O23         O  0.06209119  0.03313096  0.22371131    -0.81800
C24         C  0.06650975  0.50334604  0.22854247     0.98800
O25         O  0.05041237  0.47418116  0.20216517    -0.81800
O26         O  0.47115209  0.43783141  0.22334869    -0.84400
C27         C  0.43695068  0.43341185  0.22799973     1.03300
O28         O  0.42394183  0.44956652  0.20162337    -0.77200
O29         O  0.46683411  0.02878546  0.22333161    -0.77400
C30         C  0.49659908  0.06298410  0.22823157     1.03200
O31         O  0.03337242  0.06205414  0.10997626    -0.84700
O32         O  0.07625651  0.02571541  0.13170758    -0.81800
C33         C  0.06325108  0.49655446  0.10534818     0.98800
O34         O  0.02904383  0.46678084  0.10999617    -0.81800
O35         O  0.44978071  0.42388080  0.13118063    -0.84400
C36         C  0.43367998  0.43695315  0.10480337     1.03200
O37         O  0.43810128  0.47114965  0.10961674    -0.77200
O38         O  0.47441275  0.05036234  0.13128843    -0.77400
C39         C  0.50360865  0.06649221  0.10507140     1.03200
Cr40       Cr  0.04584261  0.04570026  0.16683769     1.93700
Cr41       Cr  0.00009756  0.45420560  0.16667235     1.93200
Cr42       Cr  0.45436249  0.49996521  0.16648614     1.39100
O43         O  0.50010192  0.49995383  0.16666743    -1.22500
C44         C  0.08810012  0.49718190  0.06993599    -0.12600
C45         C  0.10837444  0.49805892  0.03928352    -0.14200
C46         C  0.11012668  0.50190020  0.29486907    -0.12600
C47         C  0.09068448  0.50273746  0.26413962    -0.14200
C48         C  0.99805859  0.10806419  0.29443419    -0.12600
C49         C  0.49717402  0.08777320  0.26374409    -0.14200
C50         C  0.00214093  0.11010550  0.03884986    -0.12600
C51         C  0.50303260  0.09070486  0.06955010    -0.14200
C52         C  0.39183162  0.38981184  0.29408236    -0.12600
C53         C  0.41210605  0.40920291  0.26342416    -0.14200
C54         C  0.39005621  0.39188096  0.03849218    -0.12600
C55         C  0.40949621  0.41216953  0.06921415    -0.14200
C56         C  0.07047738  0.18770031  0.35638852    -0.12700
C57         C  0.03706878  0.17340380  0.32812122     0.09400
C58         C  0.03759073  0.19890640  0.29454415    -0.12700
C59         C  0.06944228  0.23779077  0.29056455    -0.12700
C60         C  0.10215785  0.25187865  0.31925955     0.09400
C61         C  0.10263995  0.22633281  0.35174761    -0.12700
H62         H  0.07197577  0.16942567  0.04911606     0.13400
H63         H  0.01266076  0.18888879  0.27199720     0.13400
H64         H  0.06857031  0.25690724  0.26502643     0.13400
H65         H  0.12753094  0.23667321  0.37440780     0.13400
C66         C  0.16840951  0.43051344  0.29081833    -0.12700
C67         C  0.14982235  0.39782789  0.31942918     0.09400
C68         C  0.12391030  0.39742874  0.35193748    -0.12700
C69         C  0.11752154  0.42964256  0.35668117    -0.12700
C70         C  0.13659509  0.46301757  0.32849677     0.09400
C71         C  0.16145718  0.46241394  0.29490140    -0.12700
H72         H  0.18830565  0.43132544  0.26526322     0.13400
H73         H  0.10939449  0.37256775  0.37453854     0.13400
H74         H  0.09783215  0.42820623  0.38274349     0.13400
H75         H  0.17632700  0.48730967  0.27240554     0.13400
C76         C  0.31243316  0.38265927  0.35611206    -0.12700
C77         C  0.32660407  0.36353249  0.32782148     0.09400
C78         C  0.30095365  0.33854873  0.29428297    -0.12700
C79         C  0.26205235  0.33152490  0.29036811    -0.12700
C80         C  0.24808977  0.35015875  0.31909699     0.09400
C81         C  0.27378243  0.37619167  0.35154332    -0.12700
H82         H  0.33082096  0.40243397  0.04881077     0.13400
H83         H  0.31086835  0.32362256  0.27172191     0.13400
H84         H  0.24282412  0.31153509  0.26485675     0.13400
H85         H  0.26355094  0.39074784  0.04089577     0.13400
C86         C  0.19924281  0.03770592  0.37238037    -0.12700
C87         C  0.17358106  0.03702784  0.33884371     0.09400
C88         C  0.18773461  0.07032249  0.31053889    -0.12700
C89         C  0.22638319  0.10251087  0.31508788    -0.12700
C90         C  0.25208952  0.10217750  0.34752738     0.09400
C91         C  0.23814217  0.06958623  0.04294177    -0.12700
H92         H  0.18934136  0.01286739  0.06162082     0.13400
H93         H  0.16933885  0.07170485  0.28450590     0.13400
H94         H  0.23660737  0.12729845  0.29238685     0.13400
H95         H  0.25738208  0.06883199  0.06844941     0.13400
C96         C  0.33177560  0.26218256  0.04247907    -0.12700
C97         C  0.35038031  0.24811052  0.34720716     0.09400
C98         C  0.37632639  0.27365815  0.31473866    -0.12700
C99         C  0.38272278  0.31226643  0.31002289    -0.12700
C100        C  0.36362126  0.32653972  0.33819460     0.09400
C101        C  0.33873590  0.30104144  0.03842474    -0.12700
H102        H  0.31185659  0.24307403  0.06800831     0.13400
H103        H  0.39086155  0.26333604  0.29214249     0.13400
H104        H  0.40243641  0.33054445  0.28398671     0.13400
H105        H  0.32384604  0.31104533  0.06091250     0.13400
C106        C  0.43073607  0.16843032  0.37601475    -0.12700
C107        C  0.39801725  0.14979744  0.34732589     0.09400
C108        C  0.39753280  0.12375693  0.98152600    -0.12700
C109        C  0.42969983  0.11729122  0.97689442    -0.12100
C110        C  0.46311292  0.13641810  0.33848300     0.09400
C111        C  0.46259022  0.16140075  0.37204510    -0.12700
H112        H  0.43161018  0.18842353  0.40153894     0.13400
H113        H  0.37263756  0.10919733  0.95887371     0.13400
H114        H  0.42820435  0.09751496  0.95084984     0.13400
H115        H  0.48752352  0.17632052  0.39458554     0.13400
C116        C  0.29376963  0.13525211  0.35026906     0.03800
C117        C  0.30226146  0.17494260  0.35033821    -0.12400
C118        C  0.34180370  0.20644666  0.68344211     0.01300
C119        C  0.37300244  0.19795304  0.68357786    -0.10900
C120        C  0.36496077  0.15840686  0.68349841     0.03800
C121        C  0.32527283  0.12721118  0.35039132    -0.10300
H122        H  0.27805385  0.18130582  0.34957403     0.09400
H123        H  0.40357018  0.22215143  0.68275251     0.06900
H124        H  0.31890427  0.09663852  0.34966915     0.06700
C125        C  0.13522065  0.29354242  0.64973955     0.03800
C126        C  0.12718626  0.32505181  0.64967045    -0.12400
C127        C  0.15839117  0.36473927  0.64982344     0.01300
C128        C  0.19792929  0.37276576  0.64959733    -0.10900
C129        C  0.20641451  0.34156223  0.64965874     0.03800
C130        C  0.17490578  0.30202229  0.64951800    -0.10300
H131        H  0.09662036  0.31869008  0.65050110     0.09400
H132        H  0.22213977  0.40333396  0.65037675     0.06900
H133        H  0.18126767  0.27781345  0.65023984     0.06700
C134        C  0.36797045  0.36788398  0.66630339    -0.01800
C135        C  0.00009708  0.13205213  0.66663916    -0.01800
C136        C  0.13222431  0.00000637  0.66704394    -0.01800
O137        O  0.02579521  0.07604833  0.53534682    -0.84700
O138        O  0.06209122  0.03313167  0.55704349    -0.81800
C139        C  0.06651056  0.50334579  0.56187489     0.98800
O140        O  0.05041289  0.47418093  0.53549741    -0.81800
O141        O  0.47115359  0.43783249  0.55668202    -0.84400
C142        C  0.43695230  0.43341305  0.56133379     1.03300
O143        O  0.42394341  0.44956841  0.53495847    -0.77200
O144        O  0.46683526  0.02878573  0.55666577    -0.77400
C145        C  0.49660032  0.06298446  0.56156499     1.03200
O146        O  0.03337111  0.06205497  0.44330879    -0.84700
O147        O  0.07625576  0.02571640  0.46503934    -0.81800
C148        C  0.06325072  0.49655487  0.43868057     0.98800
O149        O  0.02904354  0.46678121  0.44332837    -0.81800
O150        O  0.44978134  0.42388277  0.46451432    -0.84400
C151        C  0.43368007  0.43695532  0.43813799     1.03200
O152        O  0.43810152  0.47115183  0.44295198    -0.77200
O153        O  0.47441237  0.05036223  0.46462257    -0.77400
C154        C  0.50360779  0.06649184  0.43840476     1.03200
Cr155      Cr  0.04584209  0.04570113  0.50016998     1.93700
Cr156      Cr  0.00009776  0.45420538  0.50000487     1.93200
Cr157      Cr  0.45436383  0.49996710  0.49982136     1.39100
O158        O  0.50010309  0.49995530  0.50000157    -1.22500
C159        C  0.08809957  0.49718255  0.40326816    -0.12600
C160        C  0.10837381  0.49805991  0.37261552    -0.14200
C161        C  0.11012844  0.50190039  0.62820104    -0.12600
C162        C  0.09068598  0.50273740  0.59747159    -0.14200
C163        C  0.99806103  0.10806431  0.62776918    -0.12600
C164        C  0.49717600  0.08777369  0.59707763    -0.14200
C165        C  0.00213796  0.11010512  0.37218273    -0.12600
C166        C  0.50303090  0.09070426  0.40288334    -0.14200
C167        C  0.39183341  0.38981118  0.62741551    -0.12600
C168        C  0.41210762  0.40920301  0.59675756    -0.14200
C169        C  0.39005449  0.39188336  0.37182737    -0.12600
C170        C  0.40949523  0.41217182  0.40254911    -0.14200
C171        C  0.07048030  0.18770035  0.68972314    -0.12700
C172        C  0.03707131  0.17340380  0.66145627     0.09400
C173        C  0.03759268  0.19890636  0.62787969    -0.12700
C174        C  0.06944423  0.23779072  0.62390004    -0.12700
C175        C  0.10216016  0.25187879  0.65259463     0.09400
C176        C  0.10264285  0.22633293  0.68508211    -0.12700
H177        H  0.07197229  0.16942565  0.38244947     0.13400
H178        H  0.01266245  0.18888906  0.60533301     0.13400
H179        H  0.06857205  0.25690683  0.59836229     0.13400
H180        H  0.12753379  0.23667346  0.70774235     0.13400
C181        C  0.16841134  0.43051315  0.62415122    -0.12700
C182        C  0.14982447  0.39782780  0.65276265     0.09400
C183        C  0.12391261  0.39742888  0.68527075    -0.12700
C184        C  0.11752357  0.42964255  0.69001390    -0.12700
C185        C  0.13659703  0.46301742  0.66182901     0.09400
C186        C  0.16145886  0.46241355  0.62823364    -0.12700
H187        H  0.18830765  0.43132535  0.59859623     0.13400
H188        H  0.10939654  0.37256754  0.70787285     0.13400
H189        H  0.09783510  0.42820703  0.71607615     0.13400
H190        H  0.17632859  0.48730887  0.60573765     0.13400
C191        C  0.31243541  0.38265871  0.68944551    -0.12700
C192        C  0.32660591  0.36353163  0.66115468     0.09400
C193        C  0.30095533  0.33854808  0.62761620    -0.12700
C194        C  0.26205419  0.33152465  0.62370164    -0.12700
C195        C  0.24809199  0.35015877  0.65243076     0.09400
C196        C  0.27378485  0.37619150  0.68487696    -0.12700
H197        H  0.33081805  0.40243424  0.38214740     0.13400
H198        H  0.31086991  0.32362187  0.60505468     0.13400
H199        H  0.24282544  0.31153456  0.59819083     0.13400
H200        H  0.26354723  0.39074781  0.37423203     0.13400
C201        C  0.19924283  0.03770547  0.70571196    -0.12700
C202        C  0.17358117  0.03702741  0.67217512     0.09400
C203        C  0.18773506  0.07032173  0.64386992    -0.12700
C204        C  0.22638396  0.10250972  0.64841845    -0.12700
C205        C  0.25209014  0.10217622  0.68085815     0.09400
C206        C  0.23814089  0.06958833  0.37627577    -0.12700
H207        H  0.18934022  0.01286931  0.39495401     0.13400
H208        H  0.16933957  0.07170397  0.61783634     0.13400
H209        H  0.23660842  0.12729696  0.62571742     0.13400
H210        H  0.25738001  0.06883396  0.40178377     0.13400
C211        C  0.33177466  0.26218466  0.37581502    -0.12700
C212        C  0.35038119  0.24810906  0.68053852     0.09400
C213        C  0.37632692  0.27365660  0.64806973    -0.12700
C214        C  0.38272368  0.31226502  0.64335434    -0.12700
C215        C  0.36362275  0.32653856  0.67152692     0.09400
C216        C  0.33873463  0.30104348  0.37176059    -0.12700
H217        H  0.31185565  0.24307602  0.40134391     0.13400
H218        H  0.39086121  0.26333408  0.62547285     0.13400
H219        H  0.40243695  0.33054279  0.61731774     0.13400
H220        H  0.32384483  0.31104715  0.39424841     0.13400
C221        C  0.43073688  0.16842937  0.70934734    -0.12700
C222        C  0.39801815  0.14979591  0.68065830     0.09400
C223        C  0.39753097  0.12375855  0.31486068    -0.12700
C224        C  0.42969734  0.11729183  0.31022885    -0.12100
C225        C  0.46311463  0.13641777  0.67181636     0.09400
C226        C  0.46259149  0.16140051  0.70537800    -0.12700
H227        H  0.43161053  0.18842222  0.73487125     0.13400
H228        H  0.37263581  0.10919964  0.29220811     0.13400
H229        H  0.42820122  0.09751535  0.28418494     0.13400
H230        H  0.48752473  0.17632096  0.72791856     0.13400
C231        C  0.29377043  0.13525073  0.68359975     0.03800
C232        C  0.30226252  0.17494136  0.68366871    -0.12400
C233        C  0.34180352  0.20644592  0.01677539     0.01300
C234        C  0.37300247  0.19795254  0.01691051    -0.10900
C235        C  0.36496105  0.15840649  0.01683136     0.03800
C236        C  0.32527353  0.12720964  0.68372268    -0.10300
H237        H  0.27805549  0.18130500  0.68290408     0.09400
H238        H  0.40357047  0.22215116  0.01608427     0.06900
H239        H  0.31890486  0.09663702  0.68300083     0.06700
C240        C  0.13522107  0.29354250  0.98307222     0.03800
C241        C  0.12718666  0.32505192  0.98300446    -0.12400
C242        C  0.15839142  0.36473925  0.98315760     0.01300
C243        C  0.19792961  0.37276565  0.98293036    -0.10900
C244        C  0.20641472  0.34156199  0.98299051     0.03800
C245        C  0.17490614  0.30202230  0.98284966    -0.10300
H246        H  0.09662076  0.31869018  0.98383600     0.09400
H247        H  0.22213975  0.40333322  0.98370989     0.06900
H248        H  0.18126808  0.27781339  0.98357054     0.06700
C249        C  0.36797051  0.36788313  0.99963495    -0.01800
C250        C  0.00009710  0.13205258  0.99997125    -0.01800
C251        C  0.13222479  0.00000479  0.00037964    -0.01800
O252        O  0.02579721  0.07604739  0.86868154    -0.84700
O253        O  0.06209252  0.03313024  0.89037866    -0.81800
C254        C  0.06651181  0.50334489  0.89520877     0.98800
O255        O  0.05041491  0.47418030  0.86883101    -0.81800
O256        O  0.47115535  0.43783164  0.89001467    -0.84400
C257        C  0.43695390  0.43341202  0.89466597     1.03300
O258        O  0.42394516  0.44956736  0.86829036    -0.77200
O259        O  0.46683740  0.02878603  0.88999890    -0.77400
C260        C  0.49660239  0.06298479  0.89489837     1.03200
O261        O  0.03337389  0.06205406  0.77664360    -0.84700
O262        O  0.07625769  0.02571494  0.79837456    -0.81800
C263        C  0.06325342  0.49655466  0.77201385     0.98800
O264        O  0.02904637  0.46678076  0.77666172    -0.81800
O265        O  0.44978370  0.42388187  0.79784687    -0.84400
C266        C  0.43368242  0.43695420  0.77147036     1.03200
O267        O  0.43810394  0.47115072  0.77628397    -0.77200
O268        O  0.47441498  0.05036292  0.79795588    -0.77400
C269        C  0.50361037  0.06649254  0.77173812     1.03200
Cr270      Cr  0.04584406  0.04569990  0.83350496     1.93700
Cr271      Cr  0.00010006  0.45420478  0.83333796     1.93200
Cr272      Cr  0.45436565  0.49996611  0.83315343     1.39100
O273        O  0.50010507  0.49995468  0.83333414    -1.22500
C274        C  0.08810212  0.49718283  0.73660082    -0.12600
C275        C  0.10837589  0.49806011  0.70594766    -0.14200
C276        C  0.11012753  0.50189890  0.96153671    -0.12600
C277        C  0.09068584  0.50273589  0.93080650    -0.14200
C278        C  0.99806131  0.10806447  0.96110157    -0.12600
C279        C  0.49717754  0.08777400  0.93041075    -0.14200
C280        C  0.00214136  0.11010493  0.70551757    -0.12600
C281        C  0.50303354  0.09070501  0.73621686    -0.14200
C282        C  0.39183413  0.38981031  0.96074750    -0.12600
C283        C  0.41210887  0.40920202  0.93008975    -0.14200
C284        C  0.39005645  0.39188188  0.70516046    -0.12600
C285        C  0.40949745  0.41217056  0.73588186    -0.14200
C286        C  0.07048050  0.18770051  0.02305566    -0.12700
C287        C  0.03707161  0.17340415  0.99478870     0.09400
C288        C  0.03759335  0.19890670  0.96121195    -0.12700
C289        C  0.06944494  0.23779108  0.95723228    -0.12700
C290        C  0.10216068  0.25187891  0.98592707     0.09400
C291        C  0.10264311  0.22633301  0.01841465    -0.12700
H292        H  0.07197553  0.16942574  0.71578376     0.13400
H293        H  0.01266330  0.18888941  0.93866525     0.13400
H294        H  0.06857271  0.25690729  0.93169494     0.13400
H295        H  0.12753422  0.23667335  0.04107469     0.13400
C296        C  0.16841140  0.43051331  0.95748650    -0.12700
C297        C  0.14982485  0.39782796  0.98609778     0.09400
C298        C  0.12391332  0.39742886  0.01860668    -0.12700
C299        C  0.11752404  0.42964235  0.02335023    -0.12700
C300        C  0.13659676  0.46301701  0.99516513     0.09400
C301        C  0.16145863  0.46241349  0.96156944    -0.12700
H302        H  0.18830721  0.43132523  0.93193119     0.13400
H303        H  0.10939799  0.37256777  0.04120850     0.13400
H304        H  0.09783538  0.42820658  0.04941290     0.13400
H305        H  0.17632793  0.48730890  0.93907323     0.13400
C306        C  0.31243596  0.38265863  0.02277597    -0.12700
C307        C  0.32660626  0.36353136  0.99448550     0.09400
C308        C  0.30095541  0.33854747  0.96094711    -0.12700
C309        C  0.26205431  0.33152423  0.95703246    -0.12700
C310        C  0.24809225  0.35015846  0.98576131     0.09400
C311        C  0.27378544  0.37619155  0.01820732    -0.12700
H312        H  0.33082040  0.40243348  0.71548068     0.13400
H313        H  0.31087001  0.32362133  0.93838582     0.13400
H314        H  0.24282524  0.31153373  0.93152113     0.13400
H315        H  0.26354979  0.39074762  0.70756609     0.13400
C316        C  0.19924385  0.03770411  0.03904719    -0.12700
C317        C  0.17358156  0.03702598  0.00551089     0.09400
C318        C  0.18773497  0.07032048  0.97720581    -0.12700
C319        C  0.22638379  0.10250849  0.98175407    -0.12700
C320        C  0.25209054  0.10217505  0.01419301     0.09400
C321        C  0.23814119  0.06958740  0.70960696    -0.12700
H322        H  0.18934020  0.01286897  0.72828536     0.13400
H323        H  0.16933917  0.07170265  0.95117264     0.13400
H324        H  0.23660804  0.12729605  0.95905297     0.13400
H325        H  0.25738004  0.06883286  0.73511525     0.13400
C326        C  0.33177614  0.26218344  0.70914709    -0.12700
C327        C  0.35038089  0.24810808  0.01387091     0.09400
C328        C  0.37632673  0.27365536  0.98140216    -0.12700
C329        C  0.38272349  0.31226379  0.97668653    -0.12700
C330        C  0.36362239  0.32653748  0.00485867     0.09400
C331        C  0.33873638  0.30104230  0.70509314    -0.12700
H332        H  0.31185704  0.24307446  0.73467638     0.13400
H333        H  0.39086147  0.26333286  0.95880541     0.13400
H334        H  0.40243635  0.33054128  0.95064995     0.13400
H335        H  0.32384657  0.31104623  0.72758139     0.13400
C336        C  0.43073724  0.16842933  0.04268003    -0.12700
C337        C  0.39801854  0.14979580  0.01399109     0.09400
C338        C  0.39753225  0.12375694  0.64819352    -0.12700
C339        C  0.42969912  0.11729095  0.64356202    -0.12100
C340        C  0.46311536  0.13641818  0.00514863     0.09400
C341        C  0.46259195  0.16140074  0.03871059    -0.12700
H342        H  0.43161089  0.18842241  0.06820417     0.13400
H343        H  0.37263703  0.10919748  0.62554100     0.13400
H344        H  0.42820334  0.09751431  0.61751832     0.13400
H345        H  0.48752491  0.17632103  0.06125146     0.13400
C346        C  0.29378046  0.63525627  0.01689153     0.03800
C347        C  0.30226614  0.67494481  0.01695820    -0.12400
C348        C  0.34180367  0.70645511  0.35005635     0.01300
C349        C  0.37300756  0.69796876  0.35018627    -0.10900
C350        C  0.36497352  0.65842491  0.35011150     0.03800
C351        C  0.32528879  0.62722238  0.01700873    -0.10300
H352        H  0.27805534  0.68130339  0.01620123     0.09400
H353        H  0.40357315  0.72217088  0.34935642     0.06900
H354        H  0.31892514  0.59665130  0.01629233     0.06700
C355        C  0.13523082  0.79355389  0.31638343     0.03800
C356        C  0.12719007  0.82505935  0.31631936    -0.12400
C357        C  0.15839096  0.86474901  0.31646638     0.01300
C358        C  0.19793089  0.87278159  0.31623081    -0.10900
C359        C  0.20642160  0.84158233  0.31628763     0.03800
C360        C  0.17491786  0.80204024  0.31615137    -0.10300
H361        H  0.09662275  0.81869292  0.31715857     0.09400
H362        H  0.22213871  0.90335096  0.31700917     0.06900
H363        H  0.18128528  0.77783529  0.31686958     0.06700
C364        C  0.36796839  0.86789455  0.33295756    -0.01800
C365        C  0.00011270  0.63206271  0.33331403    -0.01800
C366        C  0.13223026  0.50000336  0.33372113    -0.01800
O367        O  0.02580222  0.57604516  0.20202930    -0.84700
O368        O  0.06209527  0.53312520  0.22372195    -0.81800
C369        C  0.06650921  0.00335388  0.22853118     0.98800
O370        O  0.05041431  0.97418933  0.20215312    -0.81800
O371        O  0.47115670  0.93784205  0.22334390    -0.84400
C372        C  0.43695558  0.93342266  0.22799543     1.03300
O373        O  0.42394238  0.94957037  0.20161526    -0.77200
O374        O  0.46684016  0.52878257  0.22334555    -0.77400
C375        C  0.49660678  0.56298010  0.22824755     1.03200
O376        O  0.03337843  0.56205813  0.10998951    -0.84700
O377        O  0.07626193  0.52571528  0.13171811    -0.81800
C378        C  0.06324385  0.99655457  0.10533708     0.98800
O379        O  0.02903699  0.96678110  0.10998646    -0.81800
O380        O  0.44977602  0.92388005  0.13117922    -0.84400
C381        C  0.43367522  0.93695055  0.10479959     1.03200
O382        O  0.43809838  0.97114807  0.10960787    -0.77200
O383        O  0.47441835  0.55036510  0.13130244    -0.77400
C384        C  0.50361559  0.56649890  0.10508682     1.03200
Cr385      Cr  0.04584728  0.54569828  0.16684965     1.93700
Cr386      Cr  0.00009625  0.95420893  0.16666498     1.93200
Cr387      Cr  0.45435857  0.99996589  0.16647498     1.39100
O388        O  0.50009861  0.99995637  0.16665791    -1.22500
C389        C  0.08809020  0.99718080  0.06992336    -0.12600
C390        C  0.10836354  0.99805741  0.03927055    -0.14200
C391        C  0.11012587  0.00190865  0.29485809    -0.12600
C392        C  0.09068501  0.00274715  0.26412803    -0.14200
C393        C  0.99807593  0.60806460  0.29445309    -0.12600
C394        C  0.49718572  0.58776831  0.26376359    -0.14200
C395        C  0.00215504  0.61012319  0.03886920    -0.12600
C396        C  0.50304284  0.59071987  0.06957014    -0.14200
C397        C  0.39184014  0.88983018  0.29408011    -0.12600
C398        C  0.41211531  0.90922018  0.26342326    -0.14200
C399        C  0.39004985  0.89188001  0.03848922    -0.12600
C400        C  0.40948966  0.91216470  0.06921321    -0.14200
C401        C  0.07049974  0.68771490  0.35638562    -0.12700
C402        C  0.03708913  0.67341229  0.32812019     0.09400
C403        C  0.03760990  0.69890752  0.29453459    -0.12700
C404        C  0.06945949  0.73779223  0.29054793    -0.12700
C405        C  0.10217549  0.75188772  0.31924321     0.09400
C406        C  0.10266158  0.72634768  0.35173656    -0.12700
H407        H  0.07199738  0.66944424  0.04911510     0.13400
H408        H  0.01267891  0.68888486  0.27198760     0.13400
H409        H  0.06858533  0.75690356  0.26500545     0.13400
H410        H  0.12755370  0.73669385  0.37439618     0.13400
C411        C  0.16839801  0.93051747  0.29079344    -0.12700
C412        C  0.14982014  0.89783451  0.31940951     0.09400
C413        C  0.12391781  0.89743773  0.35192835    -0.12700
C414        C  0.11752797  0.92965054  0.35667592    -0.12700
C415        C  0.13659153  0.96302246  0.32848534     0.09400
C416        C  0.16144583  0.96241753  0.29488171    -0.12700
H417        H  0.18828767  0.93132801  0.26523133     0.13400
H418        H  0.10941034  0.87257923  0.37453514     0.13400
H419        H  0.09784738  0.92821700  0.38274628     0.13400
H420        H  0.17630925  0.98731185  0.27238201     0.13400
C421        C  0.31242774  0.88265757  0.35610642    -0.12700
C422        C  0.32660826  0.86354976  0.32780061     0.09400
C423        C  0.30097180  0.83859225  0.29423720    -0.12700
C424        C  0.26207313  0.83157340  0.29031299    -0.12700
C425        C  0.24809990  0.85018499  0.31905936     0.09400
C426        C  0.27377955  0.87619453  0.35152928    -0.12700
H427        H  0.33080324  0.90241181  0.04882633     0.13400
H428        H  0.31089532  0.82368232  0.27166392     0.13400
H429        H  0.24285325  0.81160108  0.26478397     0.13400
H430        H  0.26353574  0.89073320  0.04089524     0.13400
C431        C  0.19926533  0.53770179  0.37235831    -0.12700
C432        C  0.17358754  0.53702643  0.33884307     0.09400
C433        C  0.18772594  0.57032585  0.31054792    -0.12700
C434        C  0.22637595  0.60251471  0.31508235    -0.12700
C435        C  0.25209956  0.60217768  0.34749707     0.09400
C436        C  0.23816662  0.56958383  0.04290475    -0.12700
H437        H  0.18937588  0.51286183  0.06159331     0.13400
H438        H  0.16931695  0.57171215  0.28453353     0.13400
H439        H  0.23658684  0.62730562  0.29238893     0.13400
H440        H  0.25741842  0.56882647  0.06839488     0.13400
C441        C  0.33176292  0.76218135  0.04243159    -0.12700
C442        C  0.35037318  0.74811498  0.34715654     0.09400
C443        C  0.37632095  0.77366893  0.31469346    -0.12700
C444        C  0.38271777  0.81227797  0.30998840    -0.12700
C445        C  0.36361415  0.82654552  0.33816528     0.09400
C446        C  0.33872249  0.80104063  0.03838725    -0.12700
H447        H  0.31184120  0.74306717  0.06795608     0.13400
H448        H  0.39085878  0.76335197  0.29209460     0.13400
H449        H  0.40243443  0.83056122  0.28395742     0.13400
H450        H  0.32382959  0.81103926  0.06087693     0.13400
C451        C  0.43076072  0.66847351  0.37596177    -0.12700
C452        C  0.39803674  0.64982048  0.34728158     0.09400
C453        C  0.39754793  0.62375934  0.98150773    -0.12700
C454        C  0.42971352  0.61728889  0.97689425    -0.12100
C455        C  0.46313139  0.63643287  0.33847576     0.09400
C456        C  0.46261357  0.66143931  0.37201148    -0.12700
H457        H  0.43163848  0.68848331  0.40146699     0.13400
H458        H  0.37264961  0.60918413  0.95886209     0.13400
H459        H  0.42821292  0.59749330  0.95086967     0.13400
H460        H  0.48754968  0.67637398  0.39454599     0.13400
C461        C  0.29377957  0.63525676  0.35022534     0.03800
C462        C  0.30226517  0.67494529  0.35029218    -0.12400
C463        C  0.34180543  0.70645532  0.68339032     0.01300
C464        C  0.37300947  0.69796913  0.68352106    -0.10900
C465        C  0.36497563  0.65842532  0.68344598     0.03800
C466        C  0.32528792  0.62722288  0.35034276    -0.10300
H467        H  0.27805439  0.68130388  0.34953541     0.09400
H468        H  0.40357498  0.72217128  0.68269237     0.06900
H469        H  0.31892427  0.59665174  0.34962619     0.06700
C470        C  0.13523270  0.79355428  0.64971766     0.03800
C471        C  0.12719167  0.82505969  0.64965326    -0.12400
C472        C  0.15839234  0.86474946  0.64979989     0.01300
C473        C  0.19793223  0.87278210  0.64956490    -0.10900
C474        C  0.20642306  0.84158277  0.64962219     0.03800
C475        C  0.17491958  0.80204073  0.64948600    -0.10300
H476        H  0.09662476  0.81869301  0.65049165     0.09400
H477        H  0.22213979  0.90335118  0.65034288     0.06900
H478        H  0.18128724  0.77783553  0.65020460     0.06700
C479        C  0.36796972  0.86789463  0.66629184    -0.01800
C480        C  0.00011484  0.63206300  0.66664830    -0.01800
C481        C  0.13223211  0.50000332  0.66705314    -0.01800
O482        O  0.02580274  0.57604507  0.53536290    -0.84700
O483        O  0.06209590  0.53312494  0.55705496    -0.81800
C484        C  0.06650939  0.00335468  0.56186299     0.98800
O485        O  0.05041455  0.97419042  0.53548459    -0.81800
O486        O  0.47115737  0.93784229  0.55667769    -0.84400
C487        C  0.43695626  0.93342274  0.56132955     1.03300
O488        O  0.42394288  0.94957049  0.53494975    -0.77200
O489        O  0.46684237  0.52878423  0.55668091    -0.77400
C490        C  0.49660923  0.56298175  0.56158257     1.03200
O491        O  0.03337787  0.56205803  0.44332313    -0.84700
O492        O  0.07626171  0.52571534  0.46505101    -0.81800
C493        C  0.06324299  0.99655586  0.43866855     0.98800
O494        O  0.02903620  0.96678243  0.44331799    -0.81800
O495        O  0.44977573  0.92388003  0.46451296    -0.84400
C496        C  0.43367461  0.93695050  0.43813371     1.03200
O497        O  0.43809765  0.97114791  0.44294233    -0.77200
O498        O  0.47441957  0.55036721  0.46463790    -0.77400
C499        C  0.50361615  0.56650039  0.43842133     1.03200
Cr500      Cr  0.04584735  0.54569811  0.50018296     1.93700
Cr501      Cr  0.00009613  0.95420988  0.49999688     1.93200
Cr502      Cr  0.45435868  0.99996593  0.49980920     1.39100
O503        O  0.50009872  0.99995641  0.49999112    -1.22500
C504        C  0.08808932  0.99718234  0.40325486    -0.12600
C505        C  0.10836292  0.99805918  0.37260232    -0.14200
C506        C  0.11012541  0.00190857  0.62819020    -0.12600
C507        C  0.09068465  0.00274739  0.59746014    -0.14200
C508        C  0.99807789  0.60806501  0.62778731    -0.12600
C509        C  0.49718883  0.58777024  0.59709865    -0.14200
C510        C  0.00215381  0.61012334  0.37220380    -0.12600
C511        C  0.50304246  0.59072056  0.40290412    -0.14200
C512        C  0.39184128  0.88983034  0.62741434    -0.12600
C513        C  0.41211630  0.90922035  0.59675747    -0.14200
C514        C  0.39004866  0.89188026  0.37182336    -0.12600
C515        C  0.40948872  0.91216483  0.40254732    -0.14200
C516        C  0.07050163  0.68771537  0.68971981    -0.12700
C517        C  0.03709110  0.67341256  0.66145426     0.09400
C518        C  0.03761178  0.69890781  0.62786875    -0.12700
C519        C  0.06946126  0.73779258  0.62388209    -0.12700
C520        C  0.10217722  0.75188820  0.65257734     0.09400
C521        C  0.10266336  0.72634829  0.68507073    -0.12700
H522        H  0.07199584  0.66944498  0.38245161     0.13400
H523        H  0.01268093  0.68888501  0.60532123     0.13400
H524        H  0.06858703  0.75690380  0.59833966     0.13400
H525        H  0.12755539  0.73669463  0.70773004     0.13400
C526        C  0.16839803  0.93051725  0.62412604    -0.12700
C527        C  0.14982105  0.89783487  0.65274262     0.09400
C528        C  0.12391843  0.89743795  0.68526164    -0.12700
C529        C  0.11752796  0.92965041  0.69000876    -0.12700
C530        C  0.13659084  0.96302190  0.66181780     0.09400
C531        C  0.16144512  0.96241690  0.62821385    -0.12700
H532        H  0.18828776  0.93132785  0.59856375     0.13400
H533        H  0.10941199  0.87257994  0.70786847     0.13400
H534        H  0.09784701  0.92821677  0.71608003     0.13400
H535        H  0.17630808  0.98731088  0.60571425     0.13400
C536        C  0.31242928  0.88265814  0.68944119    -0.12700
C537        C  0.32660970  0.86355015  0.66113545     0.09400
C538        C  0.30097329  0.83859283  0.62757210    -0.12700
C539        C  0.26207473  0.83157421  0.62364775    -0.12700
C540        C  0.24810152  0.85018595  0.65239400     0.09400
C541        C  0.27378115  0.87619543  0.68486398    -0.12700
H542        H  0.33080151  0.90241127  0.38216143     0.13400
H543        H  0.31089657  0.82368246  0.60499910     0.13400
H544        H  0.24285507  0.81160194  0.59811916     0.13400
H545        H  0.26353477  0.89073299  0.37423078     0.13400
C546        C  0.19926734  0.53770152  0.70569038    -0.12700
C547        C  0.17358952  0.53702633  0.67217515     0.09400
C548        C  0.18772826  0.57032579  0.64387998    -0.12700
C549        C  0.22637829  0.60251467  0.64841470    -0.12700
C550        C  0.25210172  0.60217765  0.68082976     0.09400
C551        C  0.23816547  0.56958425  0.37623760    -0.12700
H552        H  0.18937462  0.51286257  0.39492550     0.13400
H553        H  0.16931917  0.57171249  0.61786586     0.13400
H554        H  0.23658936  0.62730581  0.62572153     0.13400
H555        H  0.25741648  0.56882684  0.40172804     0.13400
C556        C  0.33176202  0.76218181  0.37576640    -0.12700
C557        C  0.35037488  0.74811515  0.68049018     0.09400
C558        C  0.37632277  0.77366925  0.64802733    -0.12700
C559        C  0.38271933  0.81227816  0.64332234    -0.12700
C560        C  0.36361565  0.82654564  0.67149929     0.09400
C561        C  0.33872135  0.80104098  0.37172202    -0.12700
H562        H  0.31184085  0.74306769  0.40129137     0.13400
H563        H  0.39086097  0.76335238  0.62542842     0.13400
H564        H  0.40243612  0.83056176  0.61729117     0.13400
H565        H  0.32382892  0.81103984  0.39421230     0.13400
C566        C  0.43076303  0.66847454  0.70929643    -0.12700
C567        C  0.39803900  0.64982093  0.68061617     0.09400
C568        C  0.39754660  0.62375974  0.31484242    -0.12700
C569        C  0.42971200  0.61728895  0.31022883    -0.12100
C570        C  0.46313419  0.63643413  0.67181089     0.09400
C571        C  0.46261617  0.66144069  0.70534631    -0.12700
H572        H  0.43164025  0.68848385  0.73480120     0.13400
H573        H  0.37264793  0.60918404  0.29219705     0.13400
H574        H  0.42821111  0.59749367  0.28420503     0.13400
H575        H  0.48755225  0.67637576  0.72788118     0.13400
C576        C  0.29378163  0.63525694  0.68355835     0.03800
C577        C  0.30226701  0.67494536  0.68362540    -0.12400
C578        C  0.34180470  0.70645463  0.01672221     0.01300
C579        C  0.37300853  0.69796823  0.01685197    -0.10900
C580        C  0.36497440  0.65842436  0.01677738     0.03800
C581        C  0.32529009  0.62722321  0.68367661    -0.10300
H582        H  0.27805602  0.68130367  0.68286758     0.09400
H583        H  0.40357421  0.72217036  0.01602280     0.06900
H584        H  0.31892654  0.59665225  0.68295953     0.06700
C585        C  0.13523252  0.79355279  0.98304805     0.03800
C586        C  0.12719148  0.82505812  0.98298478    -0.12400
C587        C  0.15839206  0.86474776  0.98313190     0.01300
C588        C  0.19793200  0.87278048  0.98289590    -0.10900
C589        C  0.20642294  0.84158128  0.98295229     0.03800
C590        C  0.17491948  0.80203926  0.98281566    -0.10300
H591        H  0.09662412  0.81869137  0.98382439     0.09400
H592        H  0.22213951  0.90334950  0.98367414     0.06900
H593        H  0.18128712  0.77783399  0.98353395     0.06700
C594        C  0.36797002  0.86789435  0.99962326    -0.01800
C595        C  0.00011392  0.63206229  0.99997918    -0.01800
C596        C  0.13223113  0.50000244  0.00038918    -0.01800
O597        O  0.02580417  0.57604402  0.86869605    -0.84700
O598        O  0.06209726  0.53312404  0.89038839    -0.81800
C599        C  0.06651039  0.00335307  0.89519824     0.98800
O600        O  0.05041540  0.97418873  0.86881985    -0.81800
O601        O  0.47115959  0.93784273  0.89001059    -0.84400
C602        C  0.43695844  0.93342310  0.89466238     1.03300
O603        O  0.42394521  0.94957088  0.86828255    -0.77200
O604        O  0.46684347  0.52878317  0.89001304    -0.77400
C605        C  0.49661006  0.56298085  0.89491493     1.03200
O606        O  0.03338038  0.56205762  0.77665630    -0.84700
O607        O  0.07626419  0.52571503  0.79838447    -0.81800
C608        C  0.06324464  0.99655469  0.77200335     0.98800
O609        O  0.02903785  0.96678119  0.77665287    -0.81800
O610        O  0.44977829  0.92388071  0.79784605    -0.84400
C611        C  0.43367699  0.93695108  0.77146689     1.03200
O612        O  0.43810028  0.97114865  0.77627523    -0.77200
O613        O  0.47442147  0.55036614  0.79797014    -0.77400
C614        C  0.50361868  0.56650032  0.77175458     1.03200
Cr615      Cr  0.04584936  0.54569745  0.83351620     1.93700
Cr616      Cr  0.00009735  0.95420856  0.83333162     1.93200
Cr617      Cr  0.45436109  0.99996649  0.83314229     1.39100
O618        O  0.50010113  0.99995709  0.83332455    -1.22500
C619        C  0.08809037  0.99718193  0.73658850    -0.12600
C620        C  0.10836320  0.99805904  0.70593495    -0.14200
C621        C  0.11012583  0.00190679  0.96152598    -0.12600
C622        C  0.09068536  0.00274565  0.93079569    -0.14200
C623        C  0.99807696  0.60806383  0.96111863    -0.12600
C624        C  0.49718879  0.58776939  0.93043044    -0.14200
C625        C  0.00215625  0.61012354  0.70553778    -0.12600
C626        C  0.50304556  0.59072141  0.73623818    -0.14200
C627        C  0.39184227  0.88982998  0.96074621    -0.12600
C628        C  0.41211794  0.90922033  0.93008987    -0.14200
C629        C  0.39005015  0.89188027  0.70515743    -0.12600
C630        C  0.40949068  0.91216511  0.73588095    -0.14200
C631        C  0.07050119  0.68771396  0.02304954    -0.12700
C632        C  0.03709039  0.67341170  0.99478475     0.09400
C633        C  0.03761127  0.69890707  0.96119934    -0.12700
C634        C  0.06946112  0.73779165  0.95721258    -0.12700
C635        C  0.10217719  0.75188683  0.98590739     0.09400
C636        C  0.10266329  0.72634661  0.01840032    -0.12700
H637        H  0.07199794  0.66944567  0.71578591     0.13400
H638        H  0.01268045  0.68888461  0.93865231     0.13400
H639        H  0.06858698  0.75690325  0.93167018     0.13400
H640        H  0.12755540  0.73669214  0.04105928     0.13400
C641        C  0.16839812  0.93051588  0.95745974    -0.12700
C642        C  0.14982126  0.89783330  0.98607570     0.09400
C643        C  0.12391904  0.89743621  0.01859535    -0.12700
C644        C  0.11752884  0.92964878  0.02334363    -0.12700
C645        C  0.13659149  0.96302045  0.99515308     0.09400
C646        C  0.16144561  0.96241566  0.96154862    -0.12700
H647        H  0.18828782  0.93132681  0.93189678     0.13400
H648        H  0.10941275  0.87257794  0.04120179     0.13400
H649        H  0.09784824  0.92821498  0.04941533     0.13400
H650        H  0.17630848  0.98730955  0.93904952     0.13400
C651        C  0.31242925  0.88265768  0.02277159    -0.12700
C652        C  0.32661000  0.86354986  0.99446591     0.09400
C653        C  0.30097369  0.83859217  0.96090263    -0.12700
C654        C  0.26207496  0.83157317  0.95697810    -0.12700
C655        C  0.24810154  0.85018485  0.98572420     0.09400
C656        C  0.27378095  0.87619448  0.01819413    -0.12700
H657        H  0.33080356  0.90241226  0.71549622     0.13400
H658        H  0.31089708  0.82368212  0.93832965     0.13400
H659        H  0.24285560  0.81160107  0.93144942     0.13400
H660        H  0.26353616  0.89073384  0.70756537     0.13400
C661        C  0.19926650  0.53770146  0.03902602    -0.12700
C662        C  0.17358821  0.53702591  0.00551109     0.09400
C663        C  0.18772627  0.57032537  0.97721580    -0.12700
C664        C  0.22637628  0.60251422  0.98174967    -0.12700
C665        C  0.25210043  0.60217718  0.01416391     0.09400
C666        C  0.23816749  0.56958400  0.70956993    -0.12700
H667        H  0.18937642  0.51286203  0.72825733     0.13400
H668        H  0.16931638  0.57171158  0.95120179     0.13400
H669        H  0.23658721  0.62730548  0.95905605     0.13400
H670        H  0.25741860  0.56882672  0.73506091     0.13400
C671        C  0.33176360  0.76218187  0.70910009    -0.12700
C672        C  0.35037443  0.74811456  0.01382212     0.09400
C673        C  0.37632294  0.77366876  0.98135948    -0.12700
C674        C  0.38271996  0.81227785  0.97665451    -0.12700
C675        C  0.36361589  0.82654534  0.00483088     0.09400
C676        C  0.33872269  0.80104096  0.70505582    -0.12700
H677        H  0.31184259  0.74306779  0.73462482     0.13400
H678        H  0.39086139  0.76335193  0.95876104     0.13400
H679        H  0.40243782  0.83056166  0.95062402     0.13400
H680        H  0.32383000  0.81103950  0.72754607     0.13400
C681        C  0.43076114  0.66847274  0.04262773    -0.12700
C682        C  0.39803758  0.64981983  0.01394736     0.09400
C683        C  0.39754917  0.62376016  0.64817725    -0.12700
C684        C  0.42971480  0.61728978  0.64356389    -0.12100
C685        C  0.46313251  0.63643270  0.00514139     0.09400
C686        C  0.46261420  0.66143883  0.03867753    -0.12700
H687        H  0.43163858  0.68848229  0.06813315     0.13400
H688        H  0.37265055  0.60918424  0.62553165     0.13400
H689        H  0.42821405  0.59749417  0.61754027     0.13400
H690        H  0.48754949  0.67637288  0.06121226     0.13400
C691        C  0.79377117  0.13525114  0.01693586     0.03800
C692        C  0.80226297  0.17494147  0.01700490    -0.12400
C693        C  0.84180156  0.20644745  0.35010856     0.01300
C694        C  0.87300061  0.19795429  0.35024330    -0.10900
C695        C  0.86495933  0.15840831  0.35016345     0.03800
C696        C  0.82527445  0.12721019  0.01705791    -0.10300
H697        H  0.77805534  0.18130474  0.01624084     0.09400
H698        H  0.90356822  0.22215291  0.34941700     0.06900
H699        H  0.81890599  0.09663823  0.01633597     0.06700
C700        C  0.63521811  0.29354231  0.31640680     0.03800
C701        C  0.62718364  0.32505178  0.31633792    -0.12400
C702        C  0.65838853  0.36473927  0.31649105     0.01300
C703        C  0.69792665  0.37276569  0.31626476    -0.10900
C704        C  0.70641175  0.34156200  0.31632599     0.03800
C705        C  0.67490315  0.30202216  0.31618490    -0.10300
H706        H  0.59661821  0.31869007  0.31716884     0.09400
H707        H  0.72213682  0.40333331  0.31704449     0.06900
H708        H  0.68126505  0.27781326  0.31690609     0.06700
C709        C  0.86796818  0.36788489  0.33297023    -0.01800
C710        C  0.50009431  0.13205185  0.33330482    -0.01800
C711        C  0.63222368  0.00000510  0.33371178    -0.01800
O712        O  0.52579490  0.07604740  0.20201446    -0.84700
O713        O  0.56209040  0.03313030  0.22371195    -0.81800
C714        C  0.56650944  0.50334569  0.22854172     0.98800
O715        O  0.55041226  0.47418069  0.20216452    -0.81800
O716        O  0.97115232  0.43783236  0.22334934    -0.84400
C717        C  0.93695096  0.43341299  0.22800029     1.03300
O718        O  0.92394235  0.44956802  0.20162406    -0.77200
O719        O  0.96683474  0.02878567  0.22333150    -0.77400
C720        C  0.99659971  0.06298433  0.22823135     1.03200
O721        O  0.53337219  0.06205430  0.10997659    -0.84700
O722        O  0.57625617  0.02571532  0.13170787    -0.81800
C723        C  0.56325081  0.49655418  0.10534746     0.98800
O724        O  0.52904369  0.46678033  0.10999537    -0.81800
O725        O  0.94978101  0.42388188  0.13118148    -0.84400
C726        C  0.93368040  0.43695437  0.10480419     1.03200
O727        O  0.93810194  0.47115102  0.10961738    -0.77200
O728        O  0.97441309  0.05036231  0.13128854    -0.77400
C729        C  0.00360896  0.06649226  0.10507139     1.03200
Cr730      Cr  0.54584213  0.04570002  0.16683810     1.93700
Cr731      Cr  0.50009739  0.45420480  0.16667163     1.93200
Cr732      Cr  0.95436324  0.49996661  0.16648683     1.39100
O733        O  0.00010248  0.49995485  0.16666796    -1.22500
C734        C  0.58809998  0.49718212  0.06993519    -0.12600
C735        C  0.60837462  0.49805960  0.03928281    -0.14200
C736        C  0.61012694  0.50190075  0.29486831    -0.12600
C737        C  0.59068464  0.50273759  0.26413867    -0.14200
C738        C  0.49805837  0.10806392  0.29443484    -0.12600
C739        C  0.99717450  0.08777337  0.26374372    -0.14200
C740        C  0.50214083  0.11010525  0.03884979    -0.12600
C741        C  0.00303277  0.09070498  0.06955005    -0.14200
C742        C  0.89183127  0.38981215  0.29408232    -0.12600
C743        C  0.91210593  0.40920360  0.26342435    -0.14200
C744        C  0.89005657  0.39188223  0.03849301    -0.12600
C745        C  0.90949659  0.41217082  0.06921496    -0.14200
C746        C  0.57047782  0.18769958  0.35638896    -0.12700
C747        C  0.53706875  0.17340340  0.32812247     0.09400
C748        C  0.53759010  0.19890635  0.29454629    -0.12700
C749        C  0.56944140  0.23779089  0.29056699    -0.12700
C750        C  0.60215744  0.25187858  0.31926127     0.09400
C751        C  0.60264018  0.22633227  0.35174836    -0.12700
H752        H  0.57197529  0.16942537  0.04911679     0.13400
H753        H  0.51265979  0.18888902  0.27199971     0.13400
H754        H  0.56856899  0.25690726  0.26502972     0.13400
H755        H  0.62753109  0.23667264  0.37440813     0.13400
C756        C  0.66840957  0.43051378  0.29081914    -0.12700
C757        C  0.64982191  0.39782808  0.31943016     0.09400
C758        C  0.62390959  0.39742905  0.35193805    -0.12700
C759        C  0.61752100  0.42964287  0.35668126    -0.12700
C760        C  0.63659509  0.46301800  0.32849672     0.09400
C761        C  0.66145742  0.46241429  0.29490175    -0.12700
H762        H  0.68830588  0.43132552  0.26526431     0.13400
H763        H  0.60939323  0.37256753  0.37453955     0.13400
H764        H  0.59783151  0.42820704  0.38274364     0.13400
H765        H  0.67632799  0.48731053  0.27240585     0.13400
C766        C  0.81243300  0.38265949  0.35611214    -0.12700
C767        C  0.82660375  0.36353281  0.32782151     0.09400
C768        C  0.80095306  0.33854892  0.29428325    -0.12700
C769        C  0.76205170  0.33152507  0.29036866    -0.12700
C770        C  0.74808930  0.35015883  0.31909763     0.09400
C771        C  0.77378223  0.37619190  0.35154355    -0.12700
H772        H  0.83082133  0.40243494  0.04881211     0.13400
H773        H  0.81086766  0.32362349  0.27172177     0.13400
H774        H  0.74282338  0.31153488  0.26485773     0.13400
H775        H  0.76355098  0.39074906  0.04089726     0.13400
C776        C  0.69924288  0.03770443  0.37237908    -0.12700
C777        C  0.67358035  0.03702632  0.33884331     0.09400
C778        C  0.68773317  0.07032116  0.31053882    -0.12700
C779        C  0.72638171  0.10250974  0.31508721    -0.12700
C780        C  0.75208886  0.10217639  0.34752567     0.09400
C781        C  0.73814233  0.06958730  0.04294328    -0.12700
H782        H  0.68934100  0.01286850  0.06162208     0.13400
H783        H  0.66933704  0.07170361  0.28450672     0.13400
H784        H  0.73660518  0.12729708  0.29238611     0.13400
H785        H  0.75738181  0.06883271  0.06845107     0.13400
C786        C  0.83177671  0.26218384  0.04248120    -0.12700
C787        C  0.85037883  0.24810973  0.34720494     0.09400
C788        C  0.87632487  0.27365760  0.31473638    -0.12700
C789        C  0.88272161  0.31226604  0.31002124    -0.12700
C790        C  0.86362036  0.32653928  0.33819363     0.09400
C791        C  0.83873686  0.30104267  0.03842652    -0.12700
H792        H  0.81185783  0.24307567  0.06801039     0.13400
H793        H  0.89085966  0.26333529  0.29213945     0.13400
H794        H  0.90243491  0.33054422  0.28398485     0.13400
H795        H  0.82384734  0.31104653  0.06091429     0.13400
C796        C  0.93073545  0.16843055  0.37601210    -0.12700
C797        C  0.89801680  0.14979757  0.34732264     0.09400
C798        C  0.89753319  0.12375796  0.98152665    -0.12700
C799        C  0.92970014  0.11729216  0.97689474    -0.12100
C800        C  0.96311288  0.13641860  0.33848125     0.09400
C801        C  0.96258972  0.16140123  0.37204295    -0.12700
H802        H  0.93160911  0.18842335  0.40153602     0.13400
H803        H  0.87263794  0.10919874  0.95887435     0.13400
H804        H  0.92820462  0.09751591  0.95084981     0.13400
H805        H  0.98752310  0.17632146  0.39458421     0.13400
C806        C  0.79376889  0.13525143  0.35026667     0.03800
C807        C  0.80226048  0.17494185  0.35033584    -0.12400
C808        C  0.84180435  0.20644648  0.68344445     0.01300
C809        C  0.87300331  0.19795318  0.68358031    -0.10900
C810        C  0.86496174  0.15840704  0.68350065     0.03800
C811        C  0.82527226  0.12721078  0.35038832    -0.10300
H812        H  0.77805312  0.18130511  0.34957240     0.09400
H813        H  0.90357101  0.22215164  0.68275455     0.06900
H814        H  0.81890396  0.09663847  0.34966621     0.06700
C815        C  0.63522027  0.29354274  0.64973986     0.03800
C816        C  0.62718616  0.32505235  0.64967103    -0.12400
C817        C  0.65839118  0.36473961  0.64982412     0.01300
C818        C  0.69792922  0.37276577  0.64959788    -0.10900
C819        C  0.70641405  0.34156186  0.64965903     0.03800
C820        C  0.67490518  0.30202219  0.64951814    -0.10300
H821        H  0.59662067  0.31869089  0.65050188     0.09400
H822        H  0.72213935  0.40333319  0.65037756     0.06900
H823        H  0.68126664  0.27781300  0.65023928     0.06700
C824        C  0.86796997  0.36788332  0.66630373    -0.01800
C825        C  0.50009648  0.13205234  0.66663835    -0.01800
C826        C  0.63222540  0.00000611  0.66704389    -0.01800
O827        O  0.52579552  0.07604776  0.53534699    -0.84700
O828        O  0.56209151  0.03313108  0.55704408    -0.81800
C829        C  0.56651133  0.50334674  0.56187447     0.98800
O830        O  0.55041349  0.47418174  0.53549715    -0.81800
O831        O  0.97115298  0.43783145  0.55668202    -0.84400
C832        C  0.93695175  0.43341220  0.56133395     1.03300
O833        O  0.92394291  0.44956771  0.53495870    -0.77200
O834        O  0.96683500  0.02878605  0.55666539    -0.77400
C835        C  0.99660009  0.06298469  0.56156497     1.03200
O836        O  0.53337134  0.06205373  0.44330911    -0.84700
O837        O  0.57625570  0.02571513  0.46504006    -0.81800
C838        C  0.56325106  0.49655574  0.43868017     0.98800
O839        O  0.52904400  0.46678199  0.44332828    -0.81800
O840        O  0.94978081  0.42388182  0.46451429    -0.84400
C841        C  0.93367943  0.43695440  0.43813806     1.03200
O842        O  0.93810081  0.47115090  0.44295201    -0.77200
O843        O  0.97441192  0.05036289  0.46462221    -0.77400
C844        C  0.00360729  0.06649261  0.43840436     1.03200
Cr845      Cr  0.54584224  0.04570013  0.50017043     1.93700
Cr846      Cr  0.50009829  0.45420617  0.50000474     1.93200
Cr847      Cr  0.95436333  0.49996642  0.49982145     1.39100
O848        O  0.00010256  0.49995456  0.50000164    -1.22500
C849        C  0.58809962  0.49718338  0.40326747    -0.12600
C850        C  0.60837391  0.49806075  0.37261487    -0.14200
C851        C  0.61012910  0.50190118  0.62820084    -0.12600
C852        C  0.59068672  0.50273826  0.59747130    -0.14200
C853        C  0.49806087  0.10806460  0.62776838    -0.12600
C854        C  0.99717583  0.08777350  0.59707818    -0.14200
C855        C  0.50213849  0.11010455  0.37218317    -0.12600
C856        C  0.00303032  0.09070502  0.40288310    -0.14200
C857        C  0.89183277  0.38981033  0.62741573    -0.12600
C858        C  0.91210692  0.40920202  0.59675767    -0.14200
C859        C  0.89005393  0.39188266  0.37182752    -0.12600
C860        C  0.90949473  0.41217111  0.40254916    -0.14200
C861        C  0.57047974  0.18770061  0.68972256    -0.12700
C862        C  0.53707069  0.17340426  0.66145575     0.09400
C863        C  0.53759214  0.19890713  0.62787942    -0.12700
C864        C  0.56944352  0.23779155  0.62390011    -0.12700
C865        C  0.60215953  0.25187932  0.65259465     0.09400
C866        C  0.60264221  0.22633325  0.68508195    -0.12700
H867        H  0.57197347  0.16942438  0.38244939     0.13400
H868        H  0.51266206  0.18888959  0.60533226     0.13400
H869        H  0.56857125  0.25690817  0.59836251     0.13400
H870        H  0.62753339  0.23667358  0.70774206     0.13400
C871        C  0.66841235  0.43051419  0.62415244    -0.12700
C872        C  0.64982480  0.39782855  0.65276326     0.09400
C873        C  0.62391245  0.39742956  0.68527093    -0.12700
C874        C  0.61752343  0.42964323  0.69001389    -0.12700
C875        C  0.63659742  0.46301826  0.66182948     0.09400
C876        C  0.66145985  0.46241462  0.62823464    -0.12700
H877        H  0.68830900  0.43132640  0.59859775     0.13400
H878        H  0.60939610  0.37256811  0.70787252     0.13400
H879        H  0.59783405  0.42820737  0.71607588     0.13400
H880        H  0.67633006  0.48731026  0.60573924     0.13400
C881        C  0.81243517  0.38265867  0.68944572    -0.12700
C882        C  0.82660551  0.36353127  0.66115525     0.09400
C883        C  0.80095459  0.33854713  0.62761711    -0.12700
C884        C  0.76205354  0.33152380  0.62370234    -0.12700
C885        C  0.74809150  0.35015831  0.65243103     0.09400
C886        C  0.77378464  0.37619155  0.68487698    -0.12700
H887        H  0.83081796  0.40243466  0.38214720     0.13400
H888        H  0.81086914  0.32362101  0.60505585     0.13400
H889        H  0.74282482  0.31153344  0.59819120     0.13400
H890        H  0.76354721  0.39074804  0.37423210     0.13400
C891        C  0.69924377  0.03770448  0.70571234    -0.12700
C892        C  0.67358214  0.03702700  0.67217575     0.09400
C893        C  0.68773604  0.07032173  0.64387110    -0.12700
C894        C  0.72638490  0.10250985  0.64842022    -0.12700
C895        C  0.75209105  0.10217590  0.68085967     0.09400
C896        C  0.73814092  0.06958703  0.37627384    -0.12700
H897        H  0.68934082  0.01286743  0.39495241     0.13400
H898        H  0.66934072  0.07170436  0.61783773     0.13400
H899        H  0.73660937  0.12729726  0.62571968     0.13400
H900        H  0.75738072  0.06883263  0.40178143     0.13400
C901        C  0.83177351  0.26218389  0.37581344    -0.12700
C902        C  0.85038158  0.24810874  0.68054054     0.09400
C903        C  0.87632764  0.27365640  0.64807182    -0.12700
C904        C  0.88272402  0.31226469  0.64335584    -0.12700
C905        C  0.86362248  0.32653795  0.67152764     0.09400
C906        C  0.83873374  0.30104281  0.37175975    -0.12700
H907        H  0.81185427  0.24307477  0.40134287     0.13400
H908        H  0.89086263  0.26333402  0.62547553     0.13400
H909        H  0.90243741  0.33054273  0.61731940     0.13400
H910        H  0.82384387  0.31104651  0.39424756     0.13400
C911        C  0.93073802  0.16842945  0.70934897    -0.12700
C912        C  0.89801914  0.14979606  0.68066008     0.09400
C913        C  0.89753094  0.12375883  0.31485755    -0.12700
C914        C  0.92969757  0.11729244  0.31022636    -0.12100
C915        C  0.96311554  0.13641786  0.67181721     0.09400
C916        C  0.96259255  0.16140046  0.70537921    -0.12700
H917        H  0.93161178  0.18842197  0.73487269     0.13400
H918        H  0.87263593  0.10920000  0.29220431     0.13400
H919        H  0.92820214  0.09751631  0.28418207     0.13400
H920        H  0.98752604  0.17632115  0.72791978     0.13400
C921        C  0.79377130  0.13525055  0.68360180     0.03800
C922        C  0.80226311  0.17494100  0.68367091    -0.12400
C923        C  0.84180414  0.20644694  0.01677767     0.01300
C924        C  0.87300315  0.19795359  0.01691281    -0.10900
C925        C  0.86496167  0.15840761  0.01683314     0.03800
C926        C  0.82527448  0.12720970  0.68372479    -0.10300
H927        H  0.77805595  0.18130420  0.68290664     0.09400
H928        H  0.90357082  0.22215202  0.01608685     0.06900
H929        H  0.81890585  0.09663722  0.68300229     0.06700
C930        C  0.63522113  0.29354284  0.98307354     0.03800
C931        C  0.62718684  0.32505230  0.98300529    -0.12400
C932        C  0.65839182  0.36473979  0.98315841     0.01300
C933        C  0.69792984  0.37276618  0.98293132    -0.10900
C934        C  0.70641490  0.34156249  0.98299184     0.03800
C935        C  0.67490605  0.30202259  0.98285101    -0.10300
H936        H  0.59662134  0.31869056  0.98383706     0.09400
H937        H  0.72214035  0.40333427  0.98371072     0.06900
H938        H  0.68126767  0.27781345  0.98357188     0.06700
C939        C  0.86797073  0.36788392  0.99963614    -0.01800
C940        C  0.50009710  0.13205253  0.99997120    -0.01800
C941        C  0.63222538  0.00000615  0.00037976    -0.01800
O942        O  0.52579784  0.07604826  0.86868067    -0.84700
O943        O  0.56209360  0.03313130  0.89037761    -0.81800
C944        C  0.56651246  0.50334589  0.89520823     0.98800
O945        O  0.55041537  0.47418119  0.86883053    -0.81800
O946        O  0.97115479  0.43783084  0.89001488    -0.84400
C947        C  0.93695345  0.43341146  0.89466622     1.03300
O948        O  0.92394475  0.44956662  0.86829036    -0.77200
O949        O  0.96683656  0.02878553  0.88999931    -0.77400
C950        C  0.99660165  0.06298413  0.89489899     1.03200
O951        O  0.53337397  0.06205459  0.77664266    -0.84700
O952        O  0.57625839  0.02571586  0.79837338    -0.81800
C953        C  0.56325354  0.49655551  0.77201346     0.98800
O954        O  0.52904645  0.46678166  0.77666133    -0.81800
O955        O  0.94978343  0.42388123  0.79784696    -0.84400
C956        C  0.93368224  0.43695368  0.77147041     1.03200
O957        O  0.93810381  0.47115025  0.77628402    -0.77200
O958        O  0.97441465  0.05036249  0.79795637    -0.77400
C959        C  0.00361035  0.06649214  0.77173893     1.03200
Cr960      Cr  0.54584468  0.04570075  0.83350396     1.93700
Cr961      Cr  0.50010047  0.45420559  0.83333768     1.93200
Cr962      Cr  0.95436541  0.49996549  0.83315360     1.39100
O963        O  0.00010471  0.49995387  0.83333441    -1.22500
C964        C  0.58810230  0.49718376  0.73660043    -0.12600
C965        C  0.60837598  0.49806095  0.70594725    -0.14200
C966        C  0.61012845  0.50189992  0.96153604    -0.12600
C967        C  0.59068673  0.50273704  0.93080589    -0.14200
C968        C  0.49806175  0.10806484  0.96110126    -0.12600
C969        C  0.99717674  0.08777340  0.93041119    -0.14200
C970        C  0.50214082  0.11010514  0.70551671    -0.12600
C971        C  0.00303393  0.09070476  0.73621773    -0.14200
C972        C  0.89183392  0.38981065  0.96074825    -0.12600
C973        C  0.91210846  0.40920192  0.93009019    -0.14200
C974        C  0.89005618  0.39188146  0.70516048    -0.12600
C975        C  0.90949717  0.41217006  0.73588191    -0.14200
C976        C  0.57048028  0.18770054  0.02305614    -0.12700
C977        C  0.53707143  0.17340425  0.99478900     0.09400
C978        C  0.53759318  0.19890715  0.96121246    -0.12700
C979        C  0.56944464  0.23779152  0.95723324    -0.12700
C980        C  0.60216048  0.25187924  0.98592812     0.09400
C981        C  0.60264281  0.22633306  0.01841566    -0.12700
H982        H  0.57197476  0.16942586  0.71578311     0.13400
H983        H  0.51266283  0.18888989  0.93866554     0.13400
H984        H  0.56857256  0.25690815  0.93169564     0.13400
H985        H  0.62753395  0.23667333  0.04107604     0.13400
C986        C  0.66841198  0.43051392  0.95748684    -0.12700
C987        C  0.64982507  0.39782833  0.98609809     0.09400
C988        C  0.62391335  0.39742938  0.01860650    -0.12700
C989        C  0.61752413  0.42964288  0.02334975    -0.12700
C990        C  0.63659725  0.46301771  0.99516469     0.09400
C991        C  0.66145936  0.46241419  0.96156942    -0.12700
H992        H  0.68830817  0.43132585  0.93193140     0.13400
H993        H  0.60939715  0.37256779  0.04120853     0.13400
H994        H  0.59783528  0.42820716  0.04941171     0.13400
H995        H  0.67632927  0.48731015  0.93907361     0.13400
C996        C  0.81243611  0.38265945  0.02277752    -0.12700
C997        C  0.82660634  0.36353188  0.99448724     0.09400
C998        C  0.80095555  0.33854774  0.96094931    -0.12700
C999        C  0.76205437  0.33152436  0.95703471    -0.12700
C1000       C  0.74809240  0.35015897  0.98576335     0.09400
C1001       C  0.77378555  0.37619232  0.01820900    -0.12700
H1002       H  0.83082082  0.40243434  0.71548063     0.13400
H1003       H  0.81086994  0.32362133  0.93838834     0.13400
H1004       H  0.74282574  0.31153414  0.93152405     0.13400
H1005       H  0.76354934  0.39074780  0.70756585     0.13400
C1006       C  0.69924394  0.03770522  0.03904833    -0.12700
C1007       C  0.67358215  0.03702721  0.00551171     0.09400
C1008       C  0.68773588  0.07032163  0.97720652    -0.12700
C1009       C  0.72638475  0.10250973  0.98175510    -0.12700
C1010       C  0.75209110  0.10217623  0.01419450     0.09400
C1011       C  0.73814212  0.06958660  0.70960787    -0.12700
H1012       H  0.68934096  0.01286762  0.72828556     0.13400
H1013       H  0.66934053  0.07170400  0.95117363     0.13400
H1014       H  0.73660902  0.12729684  0.95905392     0.13400
H1015       H  0.75738110  0.06883174  0.73511559     0.13400
C1016       C  0.83177600  0.26218297  0.70914842    -0.12700
C1017       C  0.85038187  0.24810923  0.01387316     0.09400
C1018       C  0.87632762  0.27365639  0.98140423    -0.12700
C1019       C  0.88272428  0.31226478  0.97668819    -0.12700
C1020       C  0.86362317  0.32653853  0.00486017     0.09400
C1021       C  0.83873589  0.30104171  0.70509391    -0.12700
H1022       H  0.81185669  0.24307407  0.73467803     0.13400
H1023       H  0.89086231  0.26333366  0.95880774     0.13400
H1024       H  0.90243708  0.33054224  0.95065118     0.13400
H1025       H  0.82384590  0.31104550  0.72758127     0.13400
C1026       C  0.93073791  0.16842981  0.04268111    -0.12700
C1027       C  0.89801911  0.14979664  0.01399212     0.09400
C1028       C  0.89753307  0.12375721  0.64819493    -0.12700
C1029       C  0.92969985  0.11729116  0.64356319    -0.12100
C1030       C  0.96311562  0.13641853  0.00514910     0.09400
C1031       C  0.96259256  0.16140112  0.03871123    -0.12700
H1032       H  0.93161174  0.18842289  0.06820497     0.13400
H1033       H  0.87263809  0.10919831  0.62554264     0.13400
H1034       H  0.92820393  0.09751464  0.61751837     0.13400
H1035       H  0.98752577  0.17632123  0.06125229     0.13400
C1036       C  0.79378112  0.63525679  0.01689309     0.03800
C1037       C  0.80226684  0.67494520  0.01696021    -0.12400
C1038       C  0.84180435  0.70645565  0.35005694     0.01300
C1039       C  0.87300813  0.69796917  0.35018699    -0.10900
C1040       C  0.86497399  0.65842547  0.35011225     0.03800
C1041       C  0.82528940  0.62722284  0.01700996    -0.10300
H1042       H  0.77805605  0.68130378  0.01620378     0.09400
H1043       H  0.90357419  0.72217147  0.34935786     0.06900
H1044       H  0.81892573  0.59665213  0.01629263     0.06700
C1045       C  0.63523081  0.79355256  0.31638087     0.03800
C1046       C  0.62718977  0.82505794  0.31631702    -0.12400
C1047       C  0.65839045  0.86474757  0.31646443     0.01300
C1048       C  0.69793035  0.87278027  0.31622899    -0.10900
C1049       C  0.70642122  0.84158098  0.31628578     0.03800
C1050       C  0.67491775  0.80203899  0.31614898    -0.10300
H1051       H  0.59662282  0.81869135  0.31715629     0.09400
H1052       H  0.72213763  0.90334915  0.31700714     0.06900
H1053       H  0.68128536  0.77783376  0.31686763     0.06700
C1054       C  0.86796845  0.86789465  0.33295727    -0.01800
C1055       C  0.50011213  0.63206200  0.33331286    -0.01800
C1056       C  0.63223042  0.50000392  0.33372065    -0.01800
O1057       O  0.52580101  0.57604404  0.20202848    -0.84700
O1058       O  0.56209460  0.53312468  0.22372118    -0.81800
C1059       C  0.56650853  0.00335329  0.22853132     0.98800
O1060       O  0.55041380  0.97418908  0.20215281    -0.81800
O1061       O  0.97115719  0.93784247  0.22334435    -0.84400
C1062       C  0.93695604  0.93342296  0.22799570     1.03300
O1063       O  0.92394285  0.94957041  0.20161518    -0.77200
O1064       O  0.96684099  0.52878388  0.22334628    -0.77400
C1065       C  0.99660785  0.56298135  0.22824827     1.03200
O1066       O  0.53337742  0.56205715  0.10998888    -0.84700
O1067       O  0.57626144  0.52571490  0.13171753    -0.81800
C1068       C  0.56324347  0.99655490  0.10533682     0.98800
O1069       O  0.52903657  0.96678138  0.10998606    -0.81800
O1070       O  0.94977645  0.92388017  0.13117983    -0.84400
C1071       C  0.93367585  0.93695063  0.10479983     1.03200
O1072       O  0.93809892  0.97114810  0.10960796    -0.77200
O1073       O  0.97441953  0.55036654  0.13130313    -0.77400
C1074       C  0.00361663  0.56649994  0.10508734     1.03200
Cr1075     Cr  0.54584646  0.54569751  0.16684895     1.93700
Cr1076     Cr  0.50009577  0.95420872  0.16666455     1.93200
Cr1077     Cr  0.95435909  0.99996601  0.16647498     1.39100
O1078       O  0.00009915  0.99995662  0.16665793    -1.22500
C1079       C  0.58809007  0.99718176  0.06992292    -0.12600
C1080       C  0.60836370  0.99805867  0.03927026    -0.14200
C1081       C  0.61012460  0.00190725  0.29485830    -0.12600
C1082       C  0.59068372  0.00274599  0.26412840    -0.14200
C1083       C  0.49807492  0.60806341  0.29445228    -0.12600
C1084       C  0.99718709  0.58776969  0.26376434    -0.14200
C1085       C  0.50215431  0.61012295  0.03886929    -0.12600
C1086       C  0.00304363  0.59072037  0.06957026    -0.14200
C1087       C  0.89184020  0.88983032  0.29408001    -0.12600
C1088       C  0.91211564  0.90922043  0.26342343    -0.14200
C1089       C  0.89005013  0.89187996  0.03848975    -0.12600
C1090       C  0.90949007  0.91216475  0.06921356    -0.14200
C1091       C  0.57049930  0.68771402  0.35638330    -0.12700
C1092       C  0.53708859  0.67341136  0.32811817     0.09400
C1093       C  0.53760950  0.69890648  0.29453238    -0.12700
C1094       C  0.56945920  0.73779102  0.29054529    -0.12700
C1095       C  0.60217527  0.75188658  0.31924034     0.09400
C1096       C  0.60266117  0.72634660  0.35173377    -0.12700
H1097       H  0.57199643  0.66944423  0.04911683     0.13400
H1098       H  0.51267825  0.68888372  0.27198537     0.13400
H1099       H  0.56858498  0.75690255  0.26500255     0.13400
H1100       H  0.62755338  0.73669250  0.37439310     0.13400
C1101       C  0.66839693  0.93051604  0.29079199    -0.12700
C1102       C  0.64981959  0.89783314  0.31940791     0.09400
C1103       C  0.62391730  0.89743623  0.35192731    -0.12700
C1104       C  0.61752740  0.92964900  0.35667545    -0.12700
C1105       C  0.63659048  0.96302079  0.32848499     0.09400
C1106       C  0.66144467  0.96241601  0.29488081    -0.12700
H1107       H  0.68828657  0.93132681  0.26522893     0.13400
H1108       H  0.60941025  0.87257770  0.37453399     0.13400
H1109       H  0.59784654  0.92821536  0.38274621     0.13400
H1110       H  0.67630743  0.98730999  0.27238142     0.13400
C1111       C  0.81242709  0.88265691  0.35610651    -0.12700
C1112       C  0.82660826  0.86354973  0.32780033     0.09400
C1113       C  0.80097219  0.83859238  0.29423657    -0.12700
C1114       C  0.76207354  0.83157330  0.29031191    -0.12700
C1115       C  0.74809969  0.85018438  0.31905836     0.09400
C1116       C  0.77377879  0.87619360  0.35152895    -0.12700
H1117       H  0.83080310  0.90241083  0.04882881     0.13400
H1118       H  0.81089614  0.82368302  0.27166297     0.13400
H1119       H  0.74285433  0.81160155  0.26478237     0.13400
H1120       H  0.76353627  0.89073277  0.04089830     0.13400
C1121       C  0.69926544  0.53770227  0.37235819    -0.12700
C1122       C  0.67358777  0.53702702  0.33884283     0.09400
C1123       C  0.68772643  0.57032654  0.31054771    -0.12700
C1124       C  0.72637644  0.60251538  0.31508231    -0.12700
C1125       C  0.75209991  0.60217823  0.34749723     0.09400
C1126       C  0.73816680  0.56958411  0.04290608    -0.12700
H1127       H  0.68937516  0.51286212  0.06159410     0.13400
H1128       H  0.66931732  0.57171315  0.28453361     0.13400
H1129       H  0.73658753  0.62730643  0.29238894     0.13400
H1130       H  0.75741828  0.56882680  0.06839721     0.13400
C1131       C  0.83176420  0.76218186  0.04243434    -0.12700
C1132       C  0.85037392  0.74811552  0.34715662     0.09400
C1133       C  0.87632167  0.77366944  0.31469331    -0.12700
C1134       C  0.88271835  0.81227837  0.30998811    -0.12700
C1135       C  0.86361482  0.82654597  0.33816499     0.09400
C1136       C  0.83872344  0.80104093  0.03838956    -0.12700
H1137       H  0.81184354  0.74306801  0.06796004     0.13400
H1138       H  0.89085977  0.76335248  0.29209474     0.13400
H1139       H  0.90243555  0.83056208  0.28395683     0.13400
H1140       H  0.82383144  0.81104028  0.06087995     0.13400
C1141       C  0.93076063  0.66847327  0.37596292    -0.12700
C1142       C  0.89803691  0.64982052  0.34728238     0.09400
C1143       C  0.89754829  0.62375951  0.98150835    -0.12700
C1144       C  0.92971386  0.61728905  0.97689457    -0.12100
C1145       C  0.96313169  0.63643310  0.33847665     0.09400
C1146       C  0.96261350  0.66143914  0.37201260    -0.12700
H1147       H  0.93163833  0.68848262  0.40146832     0.13400
H1148       H  0.87264977  0.60918392  0.95886310     0.13400
H1149       H  0.92821314  0.59749372  0.95087003     0.13400
H1150       H  0.98754911  0.67637338  0.39454740     0.13400
C1151       C  0.79377991  0.63525745  0.35022554     0.03800
C1152       C  0.80226566  0.67494586  0.35029242    -0.12400
C1153       C  0.84180647  0.70645585  0.68339087     0.01300
C1154       C  0.87301031  0.69796947  0.68352146    -0.10900
C1155       C  0.86497615  0.65842576  0.68344675     0.03800
C1156       C  0.82528821  0.62722353  0.35034316    -0.10300
H1157       H  0.77805493  0.68130450  0.34953533     0.09400
H1158       H  0.90357637  0.72217187  0.68269234     0.06900
H1159       H  0.81892456  0.59665283  0.34962627     0.06700
C1160       C  0.63523340  0.79355419  0.64971517     0.03800
C1161       C  0.62719246  0.82505950  0.64965102    -0.12400
C1162       C  0.65839311  0.86474920  0.64979785     0.01300
C1163       C  0.69793314  0.87278206  0.64956260    -0.10900
C1164       C  0.70642393  0.84158279  0.64961962     0.03800
C1165       C  0.67492038  0.80204071  0.64948344    -0.10300
H1166       H  0.59662514  0.81869280  0.65048931     0.09400
H1167       H  0.72214071  0.90335110  0.65034097     0.06900
H1168       H  0.68128798  0.77783577  0.65020220     0.06700
C1169       C  0.86797059  0.86789481  0.66629109    -0.01800
C1170       C  0.50011512  0.63206371  0.66664796    -0.01800
C1171       C  0.63223258  0.50000418  0.66705315    -0.01800
O1172       O  0.52580303  0.57604567  0.53536286    -0.84700
O1173       O  0.56209664  0.53312590  0.55705449    -0.81800
C1174       C  0.56650960  0.00335401  0.56186367     0.98800
O1175       O  0.55041421  0.97418928  0.53548577    -0.81800
O1176       O  0.97115778  0.93784313  0.55667652    -0.84400
C1177       C  0.93695660  0.93342329  0.56132866     1.03300
O1178       O  0.92394299  0.94957096  0.53494907    -0.77200
O1179       O  0.96684197  0.52878377  0.55668097    -0.77400
C1180       C  0.99660889  0.56298128  0.56158257     1.03200
O1181       O  0.53337810  0.56205870  0.44332295    -0.84700
O1182       O  0.57626213  0.52571631  0.46505049    -0.81800
C1183       C  0.56324284  0.99655437  0.43866946     0.98800
O1184       O  0.52903604  0.96678088  0.44331906    -0.81800
O1185       O  0.94977606  0.92388107  0.46451219    -0.84400
C1186       C  0.93367453  0.93695130  0.43813311     1.03200
O1187       O  0.93809739  0.97114868  0.44294166    -0.77200
O1188       O  0.97441918  0.55036640  0.46463777    -0.77400
C1189       C  0.00361604  0.56649992  0.43842158     1.03200
Cr1190     Cr  0.54584779  0.54569892  0.50018268     1.93700
Cr1191     Cr  0.50009582  0.95420869  0.49999789     1.93200
Cr1192     Cr  0.95435841  0.99996655  0.49980874     1.39100
O1193       O  0.00009863  0.99995741  0.49999065    -1.22500
C1194       C  0.58808908  0.99718067  0.40325559    -0.12600
C1195       C  0.60836243  0.99805762  0.37260265    -0.14200
C1196       C  0.61012658  0.00190859  0.62819024    -0.12600
C1197       C  0.59068549  0.00274719  0.59746041    -0.14200
C1198       C  0.49807807  0.60806541  0.62778726    -0.12600
C1199       C  0.99718856  0.58776987  0.59709861    -0.14200
C1200       C  0.50215339  0.61012299  0.37220285    -0.12600
C1201       C  0.00304275  0.59072053  0.40290472    -0.14200
C1202       C  0.89184213  0.88983030  0.62741362    -0.12600
C1203       C  0.91211681  0.90922055  0.59675665    -0.14200
C1204       C  0.89004847  0.89188061  0.37182301    -0.12600
C1205       C  0.90948849  0.91216538  0.40254690    -0.14200
C1206       C  0.57050246  0.68771578  0.68971848    -0.12700
C1207       C  0.53709153  0.67341314  0.66145344     0.09400
C1208       C  0.53761221  0.69890816  0.62786776    -0.12700
C1209       C  0.56946192  0.73779265  0.62388047    -0.12700
C1210       C  0.60217819  0.75188820  0.65257546     0.09400
C1211       C  0.60266441  0.72634834  0.68506884    -0.12700
H1212       H  0.57199572  0.66944442  0.38244909     0.13400
H1213       H  0.51268110  0.68888551  0.60532072     0.13400
H1214       H  0.56858749  0.75690372  0.59833800     0.13400
H1215       H  0.62755698  0.73669430  0.70772821     0.13400
C1216       C  0.66839951  0.93051734  0.62412516    -0.12700
C1217       C  0.64982209  0.89783455  0.65274102     0.09400
C1218       C  0.62391923  0.89743734  0.68525987    -0.12700
C1219       C  0.61752878  0.92964977  0.69000750    -0.12700
C1220       C  0.63659205  0.96302168  0.66181726     0.09400
C1221       C  0.66144669  0.96241706  0.62821340    -0.12700
H1222       H  0.68828955  0.93132827  0.59856251     0.13400
H1223       H  0.60941190  0.87257878  0.70786639     0.13400
H1224       H  0.59784778  0.92821588  0.71607824     0.13400
H1225       H  0.67630985  0.98731109  0.60571468     0.13400
C1226       C  0.81242985  0.88265787  0.68943981    -0.12700
C1227       C  0.82661057  0.86355010  0.66113401     0.09400
C1228       C  0.80097444  0.83859262  0.62757066    -0.12700
C1229       C  0.76207593  0.83157414  0.62364595    -0.12700
C1230       C  0.74810242  0.85018580  0.65239208     0.09400
C1231       C  0.77378173  0.87619515  0.68486216    -0.12700
H1232       H  0.83080105  0.90241074  0.38216205     0.13400
H1233       H  0.81089784  0.82368240  0.60499757     0.13400
H1234       H  0.74285683  0.81160262  0.59811691     0.13400
H1235       H  0.76353305  0.89073173  0.37423061     0.13400
C1236       C  0.69926729  0.53770265  0.70569137    -0.12700
C1237       C  0.67358991  0.53702723  0.67217550     0.09400
C1238       C  0.68772896  0.57032655  0.64387994    -0.12700
C1239       C  0.72637897  0.60251541  0.64841491    -0.12700
C1240       C  0.75210204  0.60217849  0.68083043     0.09400
C1241       C  0.73816560  0.56958466  0.37623768    -0.12700
H1242       H  0.68937446  0.51286238  0.39492482     0.13400
H1243       H  0.66932037  0.57171288  0.61786511     0.13400
H1244       H  0.73659057  0.62730611  0.62572085     0.13400
H1245       H  0.75741674  0.56882737  0.40172863     0.13400
C1246       C  0.83176284  0.76218250  0.37576654    -0.12700
C1247       C  0.85037601  0.74811562  0.68049083     0.09400
C1248       C  0.87632381  0.77366952  0.64802758    -0.12700
C1249       C  0.88272041  0.81227845  0.64332229    -0.12700
C1250       C  0.86361666  0.82654596  0.67149906     0.09400
C1251       C  0.83872212  0.80104160  0.37172187    -0.12700
H1252       H  0.81184175  0.74306882  0.40129122     0.13400
H1253       H  0.89086184  0.76335265  0.62542878     0.13400
H1254       H  0.90243726  0.83056180  0.61729132     0.13400
H1255       H  0.82382972  0.81104046  0.39421221     0.13400
C1256       C  0.93076273  0.66847342  0.70929766    -0.12700
C1257       C  0.89803902  0.64982073  0.68061714     0.09400
C1258       C  0.89754710  0.62376010  0.31484284    -0.12700
C1259       C  0.92971266  0.61728949  0.31022937    -0.12100
C1260       C  0.96313386  0.63643336  0.67181132     0.09400
C1261       C  0.96261563  0.66143938  0.70534739    -0.12700
H1262       H  0.93164036  0.68848310  0.73480295     0.13400
H1263       H  0.87264883  0.60918498  0.29219694     0.13400
H1264       H  0.92821218  0.59749442  0.28420511     0.13400
H1265       H  0.98755139  0.67637371  0.72788251     0.13400
C1266       C  0.79378203  0.63525767  0.68355923     0.03800
C1267       C  0.80226774  0.67494606  0.68362594    -0.12400
C1268       C  0.84180549  0.70645501  0.01672403     0.01300
C1269       C  0.87300926  0.69796850  0.01685349    -0.10900
C1270       C  0.86497514  0.65842479  0.01677831     0.03800
C1271       C  0.82529034  0.62722372  0.68367748    -0.10300
H1272       H  0.77805706  0.68130473  0.68286806     0.09400
H1273       H  0.90357529  0.72217077  0.01602334     0.06900
H1274       H  0.81892670  0.59665307  0.68296096     0.06700
C1275       C  0.63523229  0.79355337  0.98305064     0.03800
C1276       C  0.62719154  0.82505888  0.98298717    -0.12400
C1277       C  0.65839233  0.86474846  0.98313444     0.01300
C1278       C  0.69793225  0.87278098  0.98289897    -0.10900
C1279       C  0.70642280  0.84158146  0.98295537     0.03800
C1280       C  0.67491909  0.80203955  0.98281866    -0.10300
H1281       H  0.59662446  0.81869230  0.98382573     0.09400
H1282       H  0.72213973  0.90334971  0.98367687     0.06900
H1283       H  0.68128633  0.77783408  0.98353699     0.06700
C1284       C  0.86796983  0.86789404  0.99962432    -0.01800
C1285       C  0.50011361  0.63206247  0.99997945    -0.01800
C1286       C  0.63223169  0.50000323  0.00038878    -0.01800
O1287       O  0.52580445  0.57604488  0.86869603    -0.84700
O1288       O  0.56209778  0.53312500  0.89038807    -0.81800
C1289       C  0.56651148  0.00335413  0.89519741     0.98800
O1290       O  0.55041659  0.97418974  0.86881908    -0.81800
O1291       O  0.97115829  0.93784168  0.89001106    -0.84400
C1292       C  0.93695727  0.93342238  0.89466265     1.03300
O1293       O  0.92394425  0.94957035  0.86828270    -0.77200
O1294       O  0.96684326  0.52878251  0.89001328    -0.77400
C1295       C  0.99660978  0.56298017  0.89491495     1.03200
O1296       O  0.53338054  0.56205854  0.77665626    -0.84700
O1297       O  0.57626435  0.52571592  0.79838401    -0.81800
C1298       C  0.56324534  0.99655524  0.77200251     0.98800
O1299       O  0.52903856  0.96678164  0.77665230    -0.81800
O1300       O  0.94977746  0.92388019  0.79784640    -0.84400
C1301       C  0.93367669  0.93695085  0.77146692     1.03200
O1302       O  0.93809992  0.97114831  0.77627547    -0.77200
O1303       O  0.97442140  0.55036563  0.79797028    -0.77400
C1304       C  0.00361854  0.56649947  0.77175458     1.03200
Cr1305     Cr  0.54584968  0.54569838  0.83351604     1.93700
Cr1306     Cr  0.50009826  0.95420938  0.83333110     1.93200
Cr1307     Cr  0.95436052  0.99996601  0.83314267     1.39100
O1308       O  0.00010046  0.99995635  0.83332532    -1.22500
C1309       C  0.58809132  0.99718181  0.73658814    -0.12600
C1310       C  0.60836426  0.99805863  0.70593483    -0.14200
C1311       C  0.61012694  0.00190821  0.96152549    -0.12600
C1312       C  0.59068653  0.00274685  0.93079493    -0.14200
C1313       C  0.49807714  0.60806437  0.96111879    -0.12600
C1314       C  0.99718839  0.58776858  0.93043045    -0.14200
C1315       C  0.50215652  0.61012450  0.70553764    -0.12600
C1316       C  0.00304544  0.59072048  0.73623824    -0.14200
C1317       C  0.89184151  0.88982961  0.96074678    -0.12600
C1318       C  0.91211685  0.90921969  0.93009011    -0.14200
C1319       C  0.89005081  0.89188072  0.70515668    -0.12600
C1320       C  0.90949084  0.91216531  0.73588057    -0.14200
C1321       C  0.57050064  0.68771436  0.02305133    -0.12700
C1322       C  0.53709005  0.67341209  0.99478570     0.09400
C1323       C  0.53761130  0.69890765  0.96120040    -0.12700
C1324       C  0.56946094  0.73779230  0.95721433    -0.12700
C1325       C  0.60217685  0.75188740  0.98590983     0.09400
C1326       C  0.60266255  0.72634711  0.01840283    -0.12700
H1327       H  0.57199842  0.66944632  0.71578477     0.13400
H1328       H  0.51268040  0.68888530  0.93865265     0.13400
H1329       H  0.56858721  0.75690389  0.93167200     0.13400
H1330       H  0.62755500  0.73669287  0.04106248     0.13400
C1331       C  0.66839938  0.93051700  0.95746206    -0.12700
C1332       C  0.64982157  0.89783409  0.98607773     0.09400
C1333       C  0.62391883  0.89743716  0.01859652    -0.12700
C1334       C  0.61752863  0.92964984  0.02334413    -0.12700
C1335       C  0.63659205  0.96302169  0.99515374     0.09400
C1336       C  0.66144684  0.96241694  0.96155023    -0.12700
H1337       H  0.68828963  0.93132799  0.93189977     0.13400
H1338       H  0.60941089  0.87257812  0.04120249     0.13400
H1339       H  0.59784743  0.92821601  0.04941457     0.13400
H1340       H  0.67631000  0.98731085  0.93905140     0.13400
C1341       C  0.81242920  0.88265712  0.02277382    -0.12700
C1342       C  0.82660971  0.86354930  0.99446786     0.09400
C1343       C  0.80097327  0.83859187  0.96090474    -0.12700
C1344       C  0.76207451  0.83157297  0.95698074    -0.12700
C1345       C  0.74810132  0.85018463  0.98572718     0.09400
C1346       C  0.77378095  0.87619407  0.01819694    -0.12700
H1347       H  0.83080384  0.90241195  0.71549452     0.13400
H1348       H  0.81089651  0.82368170  0.93833141     0.13400
H1349       H  0.74285501  0.81160103  0.93145242     0.13400
H1350       H  0.76353646  0.89073325  0.70756374     0.13400
C1351       C  0.69926660  0.53770180  0.03902682    -0.12700
C1352       C  0.67358886  0.53702656  0.00551135     0.09400
C1353       C  0.68772753  0.57032605  0.97721600    -0.12700
C1354       C  0.72637752  0.60251473  0.98175044    -0.12700
C1355       C  0.75210113  0.60217763  0.01416532     0.09400
C1356       C  0.73816738  0.56958515  0.70957113    -0.12700
H1357       H  0.68937601  0.51286344  0.72825892     0.13400
H1358       H  0.66931849  0.57171232  0.95120146     0.13400
H1359       H  0.73658872  0.62730598  0.95905672     0.13400
H1360       H  0.75741815  0.56882820  0.73506268     0.13400
C1361       C  0.83176478  0.76218250  0.70910060    -0.12700
C1362       C  0.85037495  0.74811479  0.01382408     0.09400
C1363       C  0.87632221  0.77366847  0.98136028    -0.12700
C1364       C  0.88271883  0.81227732  0.97665506    -0.12700
C1365       C  0.86361576  0.82654510  0.00483230     0.09400
C1366       C  0.83872396  0.80104154  0.70505590    -0.12700
H1367       H  0.81184374  0.74306857  0.73462583     0.13400
H1368       H  0.89086009  0.76335156  0.95876132     0.13400
H1369       H  0.90243553  0.83056072  0.95062386     0.13400
H1370       H  0.82383135  0.81104043  0.72754602     0.13400
C1371       C  0.93076184  0.66847284  0.04262836    -0.12700
C1372       C  0.89803813  0.64981993  0.01394803     0.09400
C1373       C  0.89754916  0.62376021  0.64817775    -0.12700
C1374       C  0.92971466  0.61728959  0.64356416    -0.12100
C1375       C  0.96313303  0.63643283  0.00514166     0.09400
C1376       C  0.96261489  0.66143895  0.03867784    -0.12700
H1377       H  0.93163933  0.68848234  0.06813344     0.13400
H1378       H  0.87265082  0.60918507  0.62553185     0.13400
H1379       H  0.92821411  0.59749452  0.61753981     0.13400
H1380       H  0.98755042  0.67637323  0.06121278     0.13400
loop_ 
_geom_bond_atom_site_label_1 
_geom_bond_atom_site_label_2 
_geom_bond_distance 
_geom_bond_site_symmetry_2 
_ccdc_geom_bond_type 
C1            C2   1.404       .  A
C1            C6   1.404       .  A
C1          C320   1.481       .  S
C2          C233   1.404       .  A
C2            H7   1.084       .  S
C3            C4   1.404       .  A
C3          C117   1.404       .  A
C3           C97   1.481       .  S
C4            C5   1.404       .  A
C4            H8   1.084       .  S
C5          C121   1.404       .  A
C5          C107   1.480       .  S
C6          C235   1.404       .  A
C6            H9   1.084       .  S
C10          C11   1.404       .  A
C10          C15   1.404       .  A
C10          C60   1.480       .  S
C11          C12   1.404       .  A
C11          H16   1.084       .  S
C12          C13   1.404       .  A
C12          C67   1.481       .  S
C13          C14   1.404       .  A
C13          H17   1.084       .  S
C14          C15   1.404       .  A
C14          C80   1.481       .  S
C15          H18   1.084       .  S
C19          C52   1.477       .  S
C19         C169   1.477       .  S
C19          C77   1.535       .  S
C19         C100   1.535       .  S
C20          C48   1.477   1_455  S
C20         C165   1.477       .  S
C20          C57   1.535       .  S
C20         C800   1.535   1_455  S
C21         C505   1.477   1_545  S
C21         C391   1.477       .  S
C21          C87   1.535       .  S
C21         C415   1.535   1_545  S
O22         Cr40   2.011       .  S
O22         C720   1.264   1_455  A
O23         Cr40   1.975       .  S
O23         C369   1.258       .  A
C24          O25   1.264       .  A
C24         O368   1.258       .  A
C24          C47   1.435       .  S
O25         Cr41   2.011       .  S
O26        Cr731   1.975       .  S
O26          C27   1.258       .  A
C27          O28   1.264       .  A
C27          C53   1.435       .  S
O28         Cr42   2.011       .  S
O29        Cr387   1.975   1_545  S
O29          C30   1.258       .  A
C30         O712   1.264       .  A
C30          C49   1.435       .  S
O31         Cr40   1.975       .  S
O31         C729   1.258       .  A
O32         Cr40   2.011       .  S
O32         C378   1.264   1_545  A
C33          O34   1.258       .  A
C33         O377   1.264       .  A
C33          C44   1.435       .  S
O34         Cr41   1.975       .  S
O35        Cr731   2.011       .  S
O35          C36   1.264       .  A
C36          O37   1.258       .  A
C36          C55   1.435       .  S
O37         Cr42   1.975       .  S
O38        Cr387   2.011   1_545  S
O38          C39   1.264       .  A
C39         O721   1.258       .  A
C39          C51   1.435       .  S
Cr40       O1078   1.774   1_545  S
Cr41        O716   1.975   1_455  S
Cr41        O725   2.011   1_455  S
Cr41        O733   1.774       .  S
Cr42        O374   1.975       .  S
Cr42        O383   2.011       .  S
Cr42         O43   1.774       .  S
O43       Cr1075   1.774       .  S
O43        Cr731   1.774       .  S
C44          C45   1.207       .  T
C45         C596   1.477       .  S
C46         C366   1.477       .  S
C46          C47   1.207       .  T
C48         C739   1.207       .  T
C49         C738   1.207       .  T
C50         C250   1.477   1_554  S
C50         C741   1.207       .  T
C51         C740   1.207       .  T
C52          C53   1.207       .  T
C54         C249   1.477   1_554  S
C54          C55   1.207       .  T
C56          C57   1.413       .  A
C56          C61   1.397       .  A
C56         H177   1.081       .  S
C57          C58   1.411       .  A
C58          C59   1.398       .  A
C58          H63   1.083       .  S
C59          C60   1.402       .  A
C59          H64   1.083       .  S
C60          C61   1.403       .  A
C61          H65   1.083       .  S
H62         C286   1.081       .  S
C66          C67   1.402       .  A
C66          C71   1.397       .  A
C66          H72   1.083       .  S
C67          C68   1.403       .  A
C68          C69   1.398       .  A
C68          H73   1.083       .  S
C69          C70   1.413       .  A
C69          H74   1.081       .  S
C70          C71   1.411       .  A
C70         C366   1.535       .  S
C71          H75   1.083       .  S
C76          C77   1.413       .  A
C76          C81   1.397       .  A
C76         H197   1.081       .  S
C77          C78   1.411       .  A
C78          C79   1.398       .  A
C78          H83   1.083       .  S
C79          C80   1.402       .  A
C79          H84   1.083       .  S
C80          C81   1.403       .  A
C81         H200   1.083       .  S
H82         C306   1.081       .  S
H85         C311   1.083       .  S
C86          C87   1.411       .  A
C86         C206   1.398       .  A
C86         H207   1.083       .  S
C87          C88   1.413       .  A
C88          C89   1.397       .  A
C88          H93   1.081       .  S
C89          C90   1.403       .  A
C89          H94   1.083       .  S
C90         C206   1.402       .  A
C90         C116   1.481       .  S
C91         C316   1.398       .  A
C91         C320   1.402       .  A
C91          H95   1.083       .  S
H92         C316   1.083       .  S
C96         C101   1.397       .  A
C96         C327   1.402       .  A
C96         H102   1.083       .  S
C97          C98   1.403       .  A
C97         C211   1.402       .  A
C98          C99   1.398       .  A
C98         H103   1.083       .  S
C99         C100   1.413       .  A
C99         H104   1.081       .  S
C100        C216   1.411       .  A
C101        C330   1.411       .  A
C101        H105   1.083       .  S
C106        C107   1.402       .  A
C106        C111   1.397       .  A
C106        H112   1.083       .  S
C107        C223   1.403       .  A
C108        C109   1.398       .  A
C108        C337   1.403   1_556  A
C108        H113   1.083       .  S
C109        C340   1.413   1_556  A
C109        H114   1.081       .  S
C110        C111   1.411       .  A
C110        C224   1.413       .  A
C110        C710   1.535       .  S
C111        H115   1.083       .  S
C116        C117   1.404       .  A
C116        C121   1.404       .  A
C117        H122   1.084       .  S
C118        C232   1.404       .  A
C118        C119   1.404       .  A
C118        C212   1.481       .  S
C119        C120   1.404       .  A
C119        H123   1.084       .  S
C120        C236   1.404       .  A
C120        C222   1.480       .  S
C121        H124   1.084       .  S
C125        C126   1.404       .  A
C125        C130   1.404       .  A
C125        C175   1.480       .  S
C126        C127   1.404       .  A
C126        H131   1.084       .  S
C127        C128   1.404       .  A
C127        C182   1.481       .  S
C128        C129   1.404       .  A
C128        H132   1.084       .  S
C129        C130   1.404       .  A
C129        C195   1.481       .  S
C130        H133   1.084       .  S
C134        C167   1.477       .  S
C134        C284   1.477       .  S
C134        C192   1.535       .  S
C134        C215   1.535       .  S
C135        C163   1.477   1_455  S
C135        C280   1.477       .  S
C135        C172   1.535       .  S
C135        C915   1.535   1_455  S
C136        C620   1.477   1_545  S
C136        C506   1.477       .  S
C136        C530   1.535   1_545  S
C136        C202   1.535       .  S
O137       Cr155   2.011       .  S
O137        C835   1.264   1_455  A
O138       Cr155   1.975       .  S
O138        C484   1.258       .  A
C139        O483   1.258       .  A
C139        O140   1.264       .  A
C139        C162   1.435       .  S
O140       Cr156   2.011       .  S
O141       Cr846   1.975       .  S
O141        C142   1.258       .  A
C142        O143   1.264       .  A
C142        C168   1.435       .  S
O143       Cr157   2.011       .  S
O144       Cr502   1.975   1_545  S
O144        C145   1.258       .  A
C145        O827   1.264       .  A
C145        C164   1.435       .  S
O146       Cr155   1.975       .  S
O146        C844   1.258       .  A
O147       Cr155   2.011       .  S
O147        C493   1.264   1_545  A
C148        O492   1.264       .  A
C148        O149   1.258       .  A
C148        C159   1.435       .  S
O149       Cr156   1.975       .  S
O150       Cr846   2.011       .  S
O150        C151   1.264       .  A
C151        O152   1.258       .  A
C151        C170   1.435       .  S
O152       Cr157   1.975       .  S
O153       Cr502   2.011   1_545  S
O153        C154   1.264       .  A
C154        O836   1.258       .  A
C154        C166   1.435       .  S
Cr155      O1193   1.774   1_545  S
Cr156       O831   1.975   1_455  S
Cr156       O840   2.011   1_455  S
Cr156       O848   1.774       .  S
Cr157       O489   1.975       .  S
Cr157       O498   2.011       .  S
Cr157       O158   1.774       .  S
O158      Cr1190   1.774       .  S
O158       Cr846   1.774       .  S
C159        C160   1.207       .  T
C160        C366   1.477       .  S
C161        C481   1.477       .  S
C161        C162   1.207       .  T
C163        C854   1.207       .  T
C164        C853   1.207       .  T
C165        C856   1.207       .  T
C166        C855   1.207       .  T
C167        C168   1.207       .  T
C169        C170   1.207       .  T
C171        C172   1.413       .  A
C171        C176   1.397       .  A
C171        H292   1.081       .  S
C172        C173   1.411       .  A
C173        C174   1.398       .  A
C173        H178   1.083       .  S
C174        C175   1.402       .  A
C174        H179   1.083       .  S
C175        C176   1.403       .  A
C176        H180   1.083       .  S
C181        C182   1.402       .  A
C181        C186   1.397       .  A
C181        H187   1.083       .  S
C182        C183   1.403       .  A
C183        C184   1.398       .  A
C183        H188   1.083       .  S
C184        C185   1.413       .  A
C184        H189   1.081       .  S
C185        C186   1.411       .  A
C185        C481   1.535       .  S
C186        H190   1.083       .  S
C191        C192   1.413       .  A
C191        C196   1.397       .  A
C191        H312   1.081       .  S
C192        C193   1.411       .  A
C193        C194   1.398       .  A
C193        H198   1.083       .  S
C194        C195   1.402       .  A
C194        H199   1.083       .  S
C195        C196   1.403       .  A
C196        H315   1.083       .  S
C201        C202   1.411       .  A
C201        C321   1.398       .  A
C201        H322   1.083       .  S
C202        C203   1.413       .  A
C203        C204   1.397       .  A
C203        H208   1.081       .  S
C204        C205   1.403       .  A
C204        H209   1.083       .  S
C205        C321   1.402       .  A
C205        C231   1.481       .  S
C206        H210   1.083       .  S
C211        C216   1.397       .  A
C211        H217   1.083       .  S
C212        C326   1.402       .  A
C212        C213   1.403       .  A
C213        C214   1.398       .  A
C213        H218   1.083       .  S
C214        C215   1.413       .  A
C214        H219   1.081       .  S
C215        C331   1.411       .  A
C216        H220   1.083       .  S
C221        C222   1.402       .  A
C221        C226   1.397       .  A
C221        H227   1.083       .  S
C222        C338   1.403       .  A
C223        C224   1.398       .  A
C223        H228   1.083       .  S
C224        H229   1.081       .  S
C225        C339   1.413       .  A
C225        C226   1.411       .  A
C225        C825   1.535       .  S
C226        H230   1.083       .  S
C231        C232   1.404       .  A
C231        C236   1.404       .  A
C232        H237   1.084       .  S
C233        C234   1.404       .  A
C233        C327   1.481       .  S
C234        C235   1.404       .  A
C234        H238   1.084       .  S
C235        C337   1.480       .  S
C236        H239   1.084       .  S
C240        C241   1.404       .  A
C240        C245   1.404       .  A
C240        C290   1.480       .  S
C241        C242   1.404       .  A
C241        H246   1.084       .  S
C242        C243   1.404       .  A
C242        C297   1.481       .  S
C243        C244   1.404       .  A
C243        H247   1.084       .  S
C244        C245   1.404       .  A
C244        C310   1.481       .  S
C245        H248   1.084       .  S
C249        C282   1.477       .  S
C249        C307   1.535       .  S
C249        C330   1.535   1_556  S
C250        C278   1.477   1_455  S
C250        C287   1.535       .  S
C250       C1030   1.535   1_456  S
C251        C390   1.477   1_545  S
C251        C621   1.477   1_554  S
C251        C645   1.535   1_544  S
C251        C317   1.535       .  S
O252       Cr270   2.011       .  S
O252        C950   1.264   1_455  A
O253       Cr270   1.975       .  S
O253        C599   1.258       .  A
C254        O598   1.258       .  A
C254        O255   1.264       .  A
C254        C277   1.435       .  S
O255       Cr271   2.011       .  S
O256       Cr961   1.975       .  S
O256        C257   1.258       .  A
C257        O258   1.264       .  A
C257        C283   1.435       .  S
O258       Cr272   2.011       .  S
O259       Cr617   1.975   1_545  S
O259        C260   1.258       .  A
C260        O942   1.264       .  A
C260        C279   1.435       .  S
O261       Cr270   1.975       .  S
O261        C959   1.258       .  A
O262       Cr270   2.011       .  S
O262        C608   1.264   1_545  A
C263        O607   1.264       .  A
C263        O264   1.258       .  A
C263        C274   1.435       .  S
O264       Cr271   1.975       .  S
O265       Cr961   2.011       .  S
O265        C266   1.264       .  A
C266        O267   1.258       .  A
C266        C285   1.435       .  S
O267       Cr272   1.975       .  S
O268       Cr617   2.011   1_545  S
O268        C269   1.264       .  A
C269        O951   1.258       .  A
C269        C281   1.435       .  S
Cr270      O1308   1.774   1_545  S
Cr271       O946   1.975   1_455  S
Cr271       O955   2.011   1_455  S
Cr271       O963   1.774       .  S
Cr272       O604   1.975       .  S
Cr272       O613   2.011       .  S
Cr272       O273   1.774       .  S
O273      Cr1305   1.774       .  S
O273       Cr961   1.774       .  S
C274        C275   1.207       .  T
C275        C481   1.477       .  S
C276        C596   1.477   1_556  S
C276        C277   1.207       .  T
C278        C969   1.207       .  T
C279        C968   1.207       .  T
C280        C971   1.207       .  T
C281        C970   1.207       .  T
C282        C283   1.207       .  T
C284        C285   1.207       .  T
C286        C287   1.413   1_554  A
C286        C291   1.397       .  A
C287        C288   1.411       .  A
C288        C289   1.398       .  A
C288        H293   1.083       .  S
C289        C290   1.402       .  A
C289        H294   1.083       .  S
C290        C291   1.403   1_556  A
C291        H295   1.083       .  S
C296        C297   1.402       .  A
C296        C301   1.397       .  A
C296        H302   1.083       .  S
C297        C298   1.403   1_556  A
C298        C299   1.398       .  A
C298        H303   1.083       .  S
C299        C300   1.413   1_554  A
C299        H304   1.081       .  S
C300        C301   1.411       .  A
C300        C596   1.535   1_556  S
C301        H305   1.083       .  S
C306        C307   1.413   1_554  A
C306        C311   1.397       .  A
C307        C308   1.411       .  A
C308        C309   1.398       .  A
C308        H313   1.083       .  S
C309        C310   1.402       .  A
C309        H314   1.083       .  S
C310        C311   1.403   1_556  A
C316        C317   1.411       .  A
C317        C318   1.413   1_554  A
C318        C319   1.397       .  A
C318        H323   1.081       .  S
C319        C320   1.403   1_556  A
C319        H324   1.083       .  S
C321        H325   1.083       .  S
C326        C331   1.397       .  A
C326        H332   1.083       .  S
C327        C328   1.403   1_554  A
C328        C329   1.398       .  A
C328        H333   1.083       .  S
C329        C330   1.413   1_556  A
C329        H334   1.081       .  S
C331        H335   1.083       .  S
C336        C337   1.402       .  A
C336        C341   1.397       .  A
C336        H342   1.083       .  S
C338        C339   1.398       .  A
C338        H343   1.083       .  S
C339        H344   1.081       .  S
C340        C341   1.411       .  A
C340        C940   1.535   1_554  S
C341        H345   1.083       .  S
C346        C347   1.404       .  A
C346        C351   1.404       .  A
C346        C665   1.481       .  S
C347        C578   1.404       .  A
C347        H352   1.084       .  S
C348        C462   1.404       .  A
C348        C349   1.404       .  A
C348        C442   1.481       .  S
C349        C350   1.404       .  A
C349        H353   1.084       .  S
C350        C466   1.404       .  A
C350        C452   1.481       .  S
C351        C580   1.404       .  A
C351        H354   1.084       .  S
C355        C356   1.404       .  A
C355        C360   1.404       .  A
C355        C405   1.480       .  S
C356        C357   1.404       .  A
C356        H361   1.084       .  S
C357        C358   1.404       .  A
C357        C412   1.481       .  S
C358        C359   1.404       .  A
C358        H362   1.084       .  S
C359        C360   1.404       .  A
C359        C425   1.481       .  S
C360        H363   1.084       .  S
C364        C397   1.477       .  S
C364        C514   1.477       .  S
C364        C422   1.535       .  S
C364        C445   1.535       .  S
C365        C393   1.477   1_455  S
C365        C510   1.477       .  S
C365        C402   1.535       .  S
C365       C1145   1.535   1_455  S
C366        C432   1.535       .  S
O367       Cr385   2.011       .  S
O367       C1065   1.264   1_455  A
O368       Cr385   1.975       .  S
C369        O370   1.264   1_545  A
C369        C392   1.435       .  S
O370       Cr386   2.011       .  S
O371      Cr1076   1.975       .  S
O371        C372   1.258       .  A
C372        O373   1.264       .  A
C372        C398   1.435       .  S
O373       Cr387   2.011       .  S
O374        C375   1.258       .  A
C375       O1057   1.264       .  A
C375        C394   1.435       .  S
O376       Cr385   1.975       .  S
O376       C1074   1.258       .  A
O377       Cr385   2.011       .  S
C378        O379   1.258       .  A
C378        C389   1.435       .  S
O379       Cr386   1.975       .  S
O380      Cr1076   2.011       .  S
O380        C381   1.264       .  A
C381        O382   1.258       .  A
C381        C400   1.435       .  S
O382       Cr387   1.975       .  S
O383        C384   1.264       .  A
C384       O1066   1.258       .  A
C384        C396   1.435       .  S
Cr385       O733   1.774       .  S
Cr386      O1061   1.975   1_455  S
Cr386      O1070   2.011   1_455  S
Cr386      O1078   1.774       .  S
Cr387       O388   1.774       .  S
O388       Cr730   1.774   1_565  S
O388      Cr1076   1.774       .  S
C389        C390   1.207       .  T
C391        C392   1.207       .  T
C393       C1084   1.207       .  T
C394       C1083   1.207       .  T
C395        C595   1.477   1_554  S
C395       C1086   1.207       .  T
C396       C1085   1.207       .  T
C397        C398   1.207       .  T
C399        C594   1.477   1_554  S
C399        C400   1.207       .  T
C401        C402   1.413       .  A
C401        C406   1.397       .  A
C401        H522   1.081       .  S
C402        C403   1.411       .  A
C403        C404   1.398       .  A
C403        H408   1.083       .  S
C404        C405   1.402       .  A
C404        H409   1.083       .  S
C405        C406   1.403       .  A
C406        H410   1.083       .  S
H407        C631   1.081       .  S
C411        C412   1.402       .  A
C411        C416   1.397       .  A
C411        H417   1.083       .  S
C412        C413   1.403       .  A
C413        C414   1.398       .  A
C413        H418   1.083       .  S
C414        C415   1.413       .  A
C414        H419   1.081       .  S
C415        C416   1.411       .  A
C416        H420   1.083       .  S
C421        C422   1.413       .  A
C421        C426   1.397       .  A
C421        H542   1.081       .  S
C422        C423   1.411       .  A
C423        C424   1.398       .  A
C423        H428   1.083       .  S
C424        C425   1.402       .  A
C424        H429   1.083       .  S
C425        C426   1.403       .  A
C426        H545   1.083       .  S
H427        C651   1.081       .  S
H430        C656   1.083       .  S
C431        C432   1.411       .  A
C431        C551   1.398       .  A
C431        H552   1.083       .  S
C432        C433   1.413       .  A
C433        C434   1.397       .  A
C433        H438   1.081       .  S
C434        C435   1.403       .  A
C434        H439   1.083       .  S
C435        C551   1.402       .  A
C435        C461   1.481       .  S
C436        C661   1.398       .  A
C436        C665   1.402       .  A
C436        H440   1.083       .  S
H437        C661   1.083       .  S
C441        C672   1.402       .  A
C441        C446   1.397       .  A
C441        H447   1.083       .  S
C442        C556   1.402       .  A
C442        C443   1.403       .  A
C443        C444   1.398       .  A
C443        H448   1.083       .  S
C444        C445   1.413       .  A
C444        H449   1.081       .  S
C445        C561   1.411       .  A
C446        C675   1.411       .  A
C446        H450   1.083       .  S
C451        C452   1.402       .  A
C451        C456   1.397       .  A
C451        H457   1.083       .  S
C452        C568   1.403       .  A
C453        C682   1.403   1_556  A
C453        C454   1.398       .  A
C453        H458   1.083       .  S
C454        C685   1.413   1_556  A
C454        H459   1.081       .  S
C455        C569   1.413       .  A
C455        C456   1.411       .  A
C455       C1055   1.535       .  S
C456        H460   1.083       .  S
C461        C462   1.404       .  A
C461        C466   1.404       .  A
C462        H467   1.084       .  S
C463        C577   1.404       .  A
C463        C464   1.404       .  A
C463        C557   1.481       .  S
C464        C465   1.404       .  A
C464        H468   1.084       .  S
C465        C581   1.404       .  A
C465        C567   1.481       .  S
C466        H469   1.084       .  S
C470        C471   1.404       .  A
C470        C475   1.404       .  A
C470        C520   1.480       .  S
C471        C472   1.404       .  A
C471        H476   1.084       .  S
C472        C473   1.404       .  A
C472        C527   1.481       .  S
C473        C474   1.404       .  A
C473        H477   1.084       .  S
C474        C475   1.404       .  A
C474        C540   1.481       .  S
C475        H478   1.084       .  S
C479        C512   1.477       .  S
C479        C629   1.477       .  S
C479        C537   1.535       .  S
C479        C560   1.535       .  S
C480        C508   1.477   1_455  S
C480        C625   1.477       .  S
C480        C517   1.535       .  S
C480       C1260   1.535   1_455  S
C481        C547   1.535       .  S
O482       Cr500   2.011       .  S
O482       C1180   1.264   1_455  A
O483       Cr500   1.975       .  S
C484        O485   1.264   1_545  A
C484        C507   1.435       .  S
O485       Cr501   2.011       .  S
O486      Cr1191   1.975       .  S
O486        C487   1.258       .  A
C487        O488   1.264       .  A
C487        C513   1.435       .  S
O488       Cr502   2.011       .  S
O489        C490   1.258       .  A
C490       O1172   1.264       .  A
C490        C509   1.435       .  S
O491       Cr500   1.975       .  S
O491       C1189   1.258       .  A
O492       Cr500   2.011       .  S
C493        O494   1.258       .  A
C493        C504   1.435       .  S
O494       Cr501   1.975       .  S
O495      Cr1191   2.011       .  S
O495        C496   1.264       .  A
C496        O497   1.258       .  A
C496        C515   1.435       .  S
O497       Cr502   1.975       .  S
O498        C499   1.264       .  A
C499       O1181   1.258       .  A
C499        C511   1.435       .  S
Cr500       O848   1.774       .  S
Cr501      O1176   1.975   1_455  S
Cr501      O1185   2.011   1_455  S
Cr501      O1193   1.774       .  S
Cr502       O503   1.774       .  S
O503       Cr845   1.774   1_565  S
O503      Cr1191   1.774       .  S
C504        C505   1.207       .  T
C506        C507   1.207       .  T
C508       C1199   1.207       .  T
C509       C1198   1.207       .  T
C510       C1201   1.207       .  T
C511       C1200   1.207       .  T
C512        C513   1.207       .  T
C514        C515   1.207       .  T
C516        C517   1.413       .  A
C516        C521   1.397       .  A
C516        H637   1.081       .  S
C517        C518   1.411       .  A
C518        C519   1.398       .  A
C518        H523   1.083       .  S
C519        C520   1.402       .  A
C519        H524   1.083       .  S
C520        C521   1.403       .  A
C521        H525   1.083       .  S
C526        C527   1.402       .  A
C526        C531   1.397       .  A
C526        H532   1.083       .  S
C527        C528   1.403       .  A
C528        C529   1.398       .  A
C528        H533   1.083       .  S
C529        C530   1.413       .  A
C529        H534   1.081       .  S
C530        C531   1.411       .  A
C531        H535   1.083       .  S
C536        C537   1.413       .  A
C536        C541   1.397       .  A
C536        H657   1.081       .  S
C537        C538   1.411       .  A
C538        C539   1.398       .  A
C538        H543   1.083       .  S
C539        C540   1.402       .  A
C539        H544   1.083       .  S
C540        C541   1.403       .  A
C541        H660   1.083       .  S
C546        C547   1.411       .  A
C546        C666   1.398       .  A
C546        H667   1.083       .  S
C547        C548   1.413       .  A
C548        C549   1.397       .  A
C548        H553   1.081       .  S
C549        C550   1.403       .  A
C549        H554   1.083       .  S
C550        C666   1.402       .  A
C550        C576   1.481       .  S
C551        H555   1.083       .  S
C556        C561   1.397       .  A
C556        H562   1.083       .  S
C557        C671   1.402       .  A
C557        C558   1.403       .  A
C558        C559   1.398       .  A
C558        H563   1.083       .  S
C559        C560   1.413       .  A
C559        H564   1.081       .  S
C560        C676   1.411       .  A
C561        H565   1.083       .  S
C566        C567   1.402       .  A
C566        C571   1.398       .  A
C566        H572   1.083       .  S
C567        C683   1.403       .  A
C568        C569   1.398       .  A
C568        H573   1.083       .  S
C569        H574   1.081       .  S
C570        C684   1.413       .  A
C570        C571   1.411       .  A
C570       C1170   1.535       .  S
C571        H575   1.083       .  S
C576        C577   1.404       .  A
C576        C581   1.404       .  A
C577        H582   1.084       .  S
C578        C579   1.404       .  A
C578        C672   1.481       .  S
C579        C580   1.404       .  A
C579        H583   1.084       .  S
C580        C682   1.481       .  S
C581        H584   1.084       .  S
C585        C586   1.404       .  A
C585        C590   1.404       .  A
C585        C635   1.480       .  S
C586        C587   1.404       .  A
C586        H591   1.084       .  S
C587        C588   1.404       .  A
C587        C642   1.481       .  S
C588        C589   1.404       .  A
C588        H592   1.084       .  S
C589        C590   1.404       .  A
C589        C655   1.481       .  S
C590        H593   1.084       .  S
C594        C627   1.477       .  S
C594        C652   1.535       .  S
C594        C675   1.535   1_556  S
C595        C623   1.477   1_455  S
C595        C632   1.535       .  S
C595       C1375   1.535   1_456  S
C596        C662   1.535       .  S
O597       Cr615   2.011       .  S
O597       C1295   1.264   1_455  A
O598       Cr615   1.975       .  S
C599        O600   1.264   1_545  A
C599        C622   1.435       .  S
O600       Cr616   2.011       .  S
O601      Cr1306   1.975       .  S
O601        C602   1.258       .  A
C602        O603   1.264       .  A
C602        C628   1.435       .  S
O603       Cr617   2.011       .  S
O604        C605   1.258       .  A
C605       O1287   1.264       .  A
C605        C624   1.435       .  S
O606       Cr615   1.975       .  S
O606       C1304   1.258       .  A
O607       Cr615   2.011       .  S
C608        O609   1.258       .  A
C608        C619   1.435       .  S
O609       Cr616   1.975       .  S
O610      Cr1306   2.011       .  S
O610        C611   1.264       .  A
C611        O612   1.258       .  A
C611        C630   1.435       .  S
O612       Cr617   1.975       .  S
O613        C614   1.264       .  A
C614       O1296   1.258       .  A
C614        C626   1.435       .  S
Cr615       O963   1.774       .  S
Cr616      O1291   1.975   1_455  S
Cr616      O1300   2.011   1_455  S
Cr616      O1308   1.774       .  S
Cr617       O618   1.774       .  S
O618       Cr960   1.774   1_565  S
O618      Cr1306   1.774       .  S
C619        C620   1.207       .  T
C621        C622   1.207       .  T
C623       C1314   1.207       .  T
C624       C1313   1.207       .  T
C625       C1316   1.207       .  T
C626       C1315   1.207       .  T
C627        C628   1.207       .  T
C629        C630   1.207       .  T
C631        C632   1.413   1_554  A
C631        C636   1.397       .  A
C632        C633   1.411       .  A
C633        C634   1.398       .  A
C633        H638   1.083       .  S
C634        C635   1.402       .  A
C634        H639   1.083       .  S
C635        C636   1.403   1_556  A
C636        H640   1.083       .  S
C641        C642   1.402       .  A
C641        C646   1.397       .  A
C641        H647   1.083       .  S
C642        C643   1.403   1_556  A
C643        C644   1.398       .  A
C643        H648   1.083       .  S
C644        C645   1.413   1_554  A
C644        H649   1.081       .  S
C645        C646   1.411       .  A
C646        H650   1.083       .  S
C651        C652   1.413   1_554  A
C651        C656   1.397       .  A
C652        C653   1.411       .  A
C653        C654   1.398       .  A
C653        H658   1.083       .  S
C654        C655   1.402       .  A
C654        H659   1.083       .  S
C655        C656   1.403   1_556  A
C661        C662   1.411       .  A
C662        C663   1.413   1_554  A
C663        C664   1.397       .  A
C663        H668   1.081       .  S
C664        C665   1.403   1_556  A
C664        H669   1.083       .  S
C666        H670   1.083       .  S
C671        C676   1.397       .  A
C671        H677   1.083       .  S
C672        C673   1.403   1_554  A
C673        C674   1.398       .  A
C673        H678   1.083       .  S
C674        C675   1.413   1_556  A
C674        H679   1.081       .  S
C676        H680   1.083       .  S
C681        C682   1.402       .  A
C681        C686   1.397       .  A
C681        H687   1.083       .  S
C683        C684   1.398       .  A
C683        H688   1.083       .  S
C684        H689   1.081       .  S
C685        C686   1.411       .  A
C685       C1285   1.535   1_554  S
C686        H690   1.083       .  S
C691        C692   1.404       .  A
C691        C696   1.404       .  A
C691       C1010   1.481       .  S
C692        C923   1.404       .  A
C692        H697   1.084       .  S
C693        C807   1.404       .  A
C693        C694   1.404       .  A
C693        C787   1.481       .  S
C694        C695   1.404       .  A
C694        H698   1.084       .  S
C695        C811   1.404       .  A
C695        C797   1.480       .  S
C696        C925   1.404       .  A
C696        H699   1.084       .  S
C700        C701   1.404       .  A
C700        C705   1.404       .  A
C700        C750   1.480       .  S
C701        C702   1.404       .  A
C701        H706   1.084       .  S
C702        C703   1.404       .  A
C702        C757   1.481       .  S
C703        C704   1.404       .  A
C703        H707   1.084       .  S
C704        C705   1.404       .  A
C704        C770   1.481       .  S
C705        H708   1.084       .  S
C709        C742   1.477       .  S
C709        C859   1.477       .  S
C709        C767   1.535       .  S
C709        C790   1.535       .  S
C710        C738   1.477       .  S
C710        C855   1.477       .  S
C710        C747   1.535       .  S
C711       C1195   1.477   1_545  S
C711       C1081   1.477       .  S
C711       C1105   1.535   1_545  S
C711        C777   1.535       .  S
O712       Cr730   2.011       .  S
O713       Cr730   1.975       .  S
O713       C1059   1.258       .  A
C714       O1058   1.258       .  A
C714        O715   1.264       .  A
C714        C737   1.435       .  S
O715       Cr731   2.011       .  S
O716        C717   1.258       .  A
C717        O718   1.264       .  A
C717        C743   1.435       .  S
O718       Cr732   2.011       .  S
O719      Cr1077   1.975   1_545  S
O719        C720   1.258       .  A
C720        C739   1.435       .  S
O721       Cr730   1.975       .  S
O722       Cr730   2.011       .  S
O722       C1068   1.264   1_545  A
C723       O1067   1.264       .  A
C723        O724   1.258       .  A
C723        C734   1.435       .  S
O724       Cr731   1.975       .  S
O725        C726   1.264       .  A
C726        O727   1.258       .  A
C726        C745   1.435       .  S
O727       Cr732   1.975       .  S
O728      Cr1077   2.011   1_545  S
O728        C729   1.264   1_655  A
C729        C741   1.435       .  S
Cr732      O1064   1.975       .  S
Cr732      O1073   2.011       .  S
Cr732       O733   1.774   1_655  S
C734        C735   1.207       .  T
C735       C1286   1.477       .  S
C736       C1056   1.477       .  S
C736        C737   1.207       .  T
C740        C940   1.477   1_554  S
C742        C743   1.207       .  T
C744        C939   1.477   1_554  S
C744        C745   1.207       .  T
C746        C747   1.413       .  A
C746        C751   1.397       .  A
C746        H867   1.081       .  S
C747        C748   1.411       .  A
C748        C749   1.398       .  A
C748        H753   1.083       .  S
C749        C750   1.402       .  A
C749        H754   1.083       .  S
C750        C751   1.403       .  A
C751        H755   1.083       .  S
H752        C976   1.081       .  S
C756        C757   1.402       .  A
C756        C761   1.397       .  A
C756        H762   1.083       .  S
C757        C758   1.403       .  A
C758        C759   1.398       .  A
C758        H763   1.083       .  S
C759        C760   1.413       .  A
C759        H764   1.081       .  S
C760        C761   1.411       .  A
C760       C1056   1.535       .  S
C761        H765   1.083       .  S
C766        C767   1.413       .  A
C766        C771   1.397       .  A
C766        H887   1.081       .  S
C767        C768   1.411       .  A
C768        C769   1.398       .  A
C768        H773   1.083       .  S
C769        C770   1.402       .  A
C769        H774   1.083       .  S
C770        C771   1.403       .  A
C771        H890   1.083       .  S
H772        C996   1.081       .  S
H775       C1001   1.083       .  S
C776        C777   1.411       .  A
C776        C896   1.398       .  A
C776        H897   1.083       .  S
C777        C778   1.413       .  A
C778        C779   1.397       .  A
C778        H783   1.081       .  S
C779        C780   1.403       .  A
C779        H784   1.083       .  S
C780        C896   1.402       .  A
C780        C806   1.481       .  S
C781       C1006   1.398       .  A
C781       C1010   1.402       .  A
C781        H785   1.083       .  S
H782       C1006   1.083       .  S
C786       C1017   1.402       .  A
C786        C791   1.397       .  A
C786        H792   1.083       .  S
C787        C901   1.402       .  A
C787        C788   1.403       .  A
C788        C789   1.398       .  A
C788        H793   1.083       .  S
C789        C790   1.413       .  A
C789        H794   1.081       .  S
C790        C906   1.411       .  A
C791       C1020   1.411       .  A
C791        H795   1.083       .  S
C796        C797   1.402       .  A
C796        C801   1.397       .  A
C796        H802   1.083       .  S
C797        C913   1.403       .  A
C798       C1027   1.403   1_556  A
C798        C799   1.398       .  A
C798        H803   1.083       .  S
C799       C1030   1.413   1_556  A
C799        H804   1.081       .  S
C800        C914   1.413       .  A
C800        C801   1.411       .  A
C801        H805   1.083       .  S
C806        C807   1.404       .  A
C806        C811   1.404       .  A
C807        H812   1.084       .  S
C808        C922   1.404       .  A
C808        C809   1.404       .  A
C808        C902   1.481       .  S
C809        C810   1.404       .  A
C809        H813   1.084       .  S
C810        C926   1.404       .  A
C810        C912   1.480       .  S
C811        H814   1.084       .  S
C815        C816   1.404       .  A
C815        C820   1.404       .  A
C815        C865   1.480       .  S
C816        C817   1.404       .  A
C816        H821   1.084       .  S
C817        C818   1.404       .  A
C817        C872   1.481       .  S
C818        C819   1.404       .  A
C818        H822   1.084       .  S
C819        C820   1.404       .  A
C819        C885   1.481       .  S
C820        H823   1.084       .  S
C824        C857   1.477       .  S
C824        C974   1.477       .  S
C824        C882   1.535       .  S
C824        C905   1.535       .  S
C825        C853   1.477       .  S
C825        C970   1.477       .  S
C825        C862   1.535       .  S
C826       C1310   1.477   1_545  S
C826       C1196   1.477       .  S
C826       C1220   1.535   1_545  S
C826        C892   1.535       .  S
O827       Cr845   2.011       .  S
O828       Cr845   1.975       .  S
O828       C1174   1.258       .  A
C829       O1173   1.258       .  A
C829        O830   1.264       .  A
C829        C852   1.435       .  S
O830       Cr846   2.011       .  S
O831        C832   1.258       .  A
C832        O833   1.264       .  A
C832        C858   1.435       .  S
O833       Cr847   2.011       .  S
O834      Cr1192   1.975   1_545  S
O834        C835   1.258       .  A
C835        C854   1.435       .  S
O836       Cr845   1.975       .  S
O837       Cr845   2.011       .  S
O837       C1183   1.264   1_545  A
C838       O1182   1.264       .  A
C838        O839   1.258       .  A
C838        C849   1.435       .  S
O839       Cr846   1.975       .  S
O840        C841   1.264       .  A
C841        O842   1.258       .  A
C841        C860   1.435       .  S
O842       Cr847   1.975       .  S
O843      Cr1192   2.011   1_545  S
O843        C844   1.264   1_655  A
C844        C856   1.435       .  S
Cr847      O1179   1.975       .  S
Cr847      O1188   2.011       .  S
Cr847       O848   1.774   1_655  S
C849        C850   1.207       .  T
C850       C1056   1.477       .  S
C851       C1171   1.477       .  S
C851        C852   1.207       .  T
C857        C858   1.207       .  T
C859        C860   1.207       .  T
C861        C862   1.413       .  A
C861        C866   1.397       .  A
C861        H982   1.081       .  S
C862        C863   1.411       .  A
C863        C864   1.398       .  A
C863        H868   1.083       .  S
C864        C865   1.402       .  A
C864        H869   1.083       .  S
C865        C866   1.403       .  A
C866        H870   1.083       .  S
C871        C872   1.402       .  A
C871        C876   1.397       .  A
C871        H877   1.083       .  S
C872        C873   1.403       .  A
C873        C874   1.398       .  A
C873        H878   1.083       .  S
C874        C875   1.413       .  A
C874        H879   1.081       .  S
C875        C876   1.411       .  A
C875       C1171   1.535       .  S
C876        H880   1.083       .  S
C881        C882   1.413       .  A
C881        C886   1.397       .  A
C881       H1002   1.081       .  S
C882        C883   1.411       .  A
C883        C884   1.398       .  A
C883        H888   1.083       .  S
C884        C885   1.402       .  A
C884        H889   1.083       .  S
C885        C886   1.403       .  A
C886       H1005   1.083       .  S
C891        C892   1.411       .  A
C891       C1011   1.398       .  A
C891       H1012   1.083       .  S
C892        C893   1.413       .  A
C893        C894   1.397       .  A
C893        H898   1.081       .  S
C894        C895   1.403       .  A
C894        H899   1.083       .  S
C895       C1011   1.402       .  A
C895        C921   1.481       .  S
C896        H900   1.083       .  S
C901        C906   1.397       .  A
C901        H907   1.083       .  S
C902       C1016   1.402       .  A
C902        C903   1.403       .  A
C903        C904   1.398       .  A
C903        H908   1.083       .  S
C904        C905   1.413       .  A
C904        H909   1.081       .  S
C905       C1021   1.411       .  A
C906        H910   1.083       .  S
C911        C912   1.402       .  A
C911        C916   1.397       .  A
C911        H917   1.083       .  S
C912       C1028   1.403       .  A
C913        C914   1.398       .  A
C913        H918   1.083       .  S
C914        H919   1.081       .  S
C915       C1029   1.413       .  A
C915        C916   1.411       .  A
C916        H920   1.083       .  S
C921        C922   1.404       .  A
C921        C926   1.404       .  A
C922        H927   1.084       .  S
C923        C924   1.404       .  A
C923       C1017   1.481       .  S
C924        C925   1.404       .  A
C924        H928   1.084       .  S
C925       C1027   1.480       .  S
C926        H929   1.084       .  S
C930        C931   1.404       .  A
C930        C935   1.404       .  A
C930        C980   1.480       .  S
C931        C932   1.404       .  A
C931        H936   1.084       .  S
C932        C933   1.404       .  A
C932        C987   1.481       .  S
C933        C934   1.404       .  A
C933        H937   1.084       .  S
C934        C935   1.404       .  A
C934       C1000   1.481       .  S
C935        H938   1.084       .  S
C939        C972   1.477       .  S
C939        C997   1.535       .  S
C939       C1020   1.535   1_556  S
C940        C968   1.477       .  S
C940        C977   1.535       .  S
C941       C1080   1.477   1_545  S
C941       C1311   1.477   1_554  S
C941       C1335   1.535   1_544  S
C941       C1007   1.535       .  S
O942       Cr960   2.011       .  S
O943       Cr960   1.975       .  S
O943       C1289   1.258       .  A
C944       O1288   1.258       .  A
C944        O945   1.264       .  A
C944        C967   1.435       .  S
O945       Cr961   2.011       .  S
O946        C947   1.258       .  A
C947        O948   1.264       .  A
C947        C973   1.435       .  S
O948       Cr962   2.011       .  S
O949      Cr1307   1.975   1_545  S
O949        C950   1.258       .  A
C950        C969   1.435       .  S
O951       Cr960   1.975       .  S
O952       Cr960   2.011       .  S
O952       C1298   1.264   1_545  A
C953       O1297   1.264       .  A
C953        O954   1.258       .  A
C953        C964   1.435       .  S
O954       Cr961   1.975       .  S
O955        C956   1.264       .  A
C956        O957   1.258       .  A
C956        C975   1.435       .  S
O957       Cr962   1.975       .  S
O958      Cr1307   2.011   1_545  S
O958        C959   1.264   1_655  A
C959        C971   1.435       .  S
Cr962      O1294   1.975       .  S
Cr962      O1303   2.011       .  S
Cr962       O963   1.774   1_655  S
C964        C965   1.207       .  T
C965       C1171   1.477       .  S
C966       C1286   1.477   1_556  S
C966        C967   1.207       .  T
C972        C973   1.207       .  T
C974        C975   1.207       .  T
C976        C977   1.413   1_554  A
C976        C981   1.397       .  A
C977        C978   1.411       .  A
C978        C979   1.398       .  A
C978        H983   1.083       .  S
C979        C980   1.402       .  A
C979        H984   1.083       .  S
C980        C981   1.403   1_556  A
C981        H985   1.083       .  S
C986        C987   1.402       .  A
C986        C991   1.397       .  A
C986        H992   1.083       .  S
C987        C988   1.403   1_556  A
C988        C989   1.398       .  A
C988        H993   1.083       .  S
C989        C990   1.413   1_554  A
C989        H994   1.081       .  S
C990        C991   1.411       .  A
C990       C1286   1.535   1_556  S
C991        H995   1.083       .  S
C996        C997   1.413   1_554  A
C996       C1001   1.397       .  A
C997        C998   1.411       .  A
C998        C999   1.398       .  A
C998       H1003   1.083       .  S
C999       C1000   1.402       .  A
C999       H1004   1.083       .  S
C1000      C1001   1.403   1_556  A
C1006      C1007   1.411       .  A
C1007      C1008   1.413   1_554  A
C1008      C1009   1.397       .  A
C1008      H1013   1.081       .  S
C1009      C1010   1.403   1_556  A
C1009      H1014   1.083       .  S
C1011      H1015   1.083       .  S
C1016      C1021   1.397       .  A
C1016      H1022   1.083       .  S
C1017      C1018   1.403   1_554  A
C1018      C1019   1.398       .  A
C1018      H1023   1.083       .  S
C1019      C1020   1.413   1_556  A
C1019      H1024   1.081       .  S
C1021      H1025   1.083       .  S
C1026      C1027   1.402       .  A
C1026      C1031   1.397       .  A
C1026      H1032   1.083       .  S
C1028      C1029   1.397       .  A
C1028      H1033   1.083       .  S
C1029      H1034   1.081       .  S
C1030      C1031   1.411       .  A
C1031      H1035   1.083       .  S
C1036      C1037   1.404       .  A
C1036      C1041   1.404       .  A
C1036      C1355   1.481       .  S
C1037      C1268   1.404       .  A
C1037      H1042   1.084       .  S
C1038      C1152   1.404       .  A
C1038      C1039   1.404       .  A
C1038      C1132   1.481       .  S
C1039      C1040   1.404       .  A
C1039      H1043   1.084       .  S
C1040      C1156   1.404       .  A
C1040      C1142   1.481       .  S
C1041      C1270   1.404       .  A
C1041      H1044   1.084       .  S
C1045      C1046   1.404       .  A
C1045      C1050   1.404       .  A
C1045      C1095   1.480       .  S
C1046      C1047   1.404       .  A
C1046      H1051   1.084       .  S
C1047      C1048   1.404       .  A
C1047      C1102   1.481       .  S
C1048      C1049   1.404       .  A
C1048      H1052   1.084       .  S
C1049      C1050   1.404       .  A
C1049      C1115   1.481       .  S
C1050      H1053   1.084       .  S
C1054      C1087   1.477       .  S
C1054      C1204   1.477       .  S
C1054      C1112   1.535       .  S
C1054      C1135   1.535       .  S
C1055      C1083   1.477       .  S
C1055      C1200   1.477       .  S
C1055      C1092   1.535       .  S
C1056      C1122   1.535       .  S
O1057     Cr1075   2.011       .  S
O1058     Cr1075   1.975       .  S
C1059      O1060   1.264   1_545  A
C1059      C1082   1.435       .  S
O1060     Cr1076   2.011       .  S
O1061      C1062   1.258       .  A
C1062      O1063   1.264       .  A
C1062      C1088   1.435       .  S
O1063     Cr1077   2.011       .  S
O1064      C1065   1.258       .  A
C1065      C1084   1.435       .  S
O1066     Cr1075   1.975       .  S
O1067     Cr1075   2.011       .  S
C1068      O1069   1.258       .  A
C1068      C1079   1.435       .  S
O1069     Cr1076   1.975       .  S
O1070      C1071   1.264       .  A
C1071      O1072   1.258       .  A
C1071      C1090   1.435       .  S
O1072     Cr1077   1.975       .  S
O1073      C1074   1.264   1_655  A
C1074      C1086   1.435       .  S
Cr1077     O1078   1.774   1_655  S
C1079      C1080   1.207       .  T
C1081      C1082   1.207       .  T
C1085      C1285   1.477   1_554  S
C1087      C1088   1.207       .  T
C1089      C1284   1.477   1_554  S
C1089      C1090   1.207       .  T
C1091      C1092   1.413       .  A
C1091      C1096   1.397       .  A
C1091      H1212   1.081       .  S
C1092      C1093   1.411       .  A
C1093      C1094   1.398       .  A
C1093      H1098   1.083       .  S
C1094      C1095   1.402       .  A
C1094      H1099   1.083       .  S
C1095      C1096   1.403       .  A
C1096      H1100   1.083       .  S
H1097      C1321   1.081       .  S
C1101      C1102   1.402       .  A
C1101      C1106   1.397       .  A
C1101      H1107   1.083       .  S
C1102      C1103   1.403       .  A
C1103      C1104   1.398       .  A
C1103      H1108   1.083       .  S
C1104      C1105   1.413       .  A
C1104      H1109   1.081       .  S
C1105      C1106   1.411       .  A
C1106      H1110   1.083       .  S
C1111      C1112   1.413       .  A
C1111      C1116   1.397       .  A
C1111      H1232   1.081       .  S
C1112      C1113   1.411       .  A
C1113      C1114   1.398       .  A
C1113      H1118   1.083       .  S
C1114      C1115   1.402       .  A
C1114      H1119   1.083       .  S
C1115      C1116   1.403       .  A
C1116      H1235   1.083       .  S
H1117      C1341   1.081       .  S
H1120      C1346   1.083       .  S
C1121      C1122   1.411       .  A
C1121      C1241   1.398       .  A
C1121      H1242   1.083       .  S
C1122      C1123   1.413       .  A
C1123      C1124   1.397       .  A
C1123      H1128   1.081       .  S
C1124      C1125   1.403       .  A
C1124      H1129   1.083       .  S
C1125      C1241   1.402       .  A
C1125      C1151   1.481       .  S
C1126      C1351   1.398       .  A
C1126      C1355   1.402       .  A
C1126      H1130   1.083       .  S
H1127      C1351   1.083       .  S
C1131      C1362   1.402       .  A
C1131      C1136   1.397       .  A
C1131      H1137   1.083       .  S
C1132      C1246   1.402       .  A
C1132      C1133   1.403       .  A
C1133      C1134   1.398       .  A
C1133      H1138   1.083       .  S
C1134      C1135   1.413       .  A
C1134      H1139   1.081       .  S
C1135      C1251   1.411       .  A
C1136      C1365   1.411       .  A
C1136      H1140   1.083       .  S
C1141      C1142   1.402       .  A
C1141      C1146   1.397       .  A
C1141      H1147   1.083       .  S
C1142      C1258   1.403       .  A
C1143      C1372   1.403   1_556  A
C1143      C1144   1.398       .  A
C1143      H1148   1.083       .  S
C1144      C1375   1.413   1_556  A
C1144      H1149   1.081       .  S
C1145      C1259   1.413       .  A
C1145      C1146   1.411       .  A
C1146      H1150   1.083       .  S
C1151      C1152   1.404       .  A
C1151      C1156   1.404       .  A
C1152      H1157   1.084       .  S
C1153      C1267   1.404       .  A
C1153      C1154   1.404       .  A
C1153      C1247   1.481       .  S
C1154      C1155   1.404       .  A
C1154      H1158   1.084       .  S
C1155      C1271   1.404       .  A
C1155      C1257   1.481       .  S
C1156      H1159   1.084       .  S
C1160      C1161   1.404       .  A
C1160      C1165   1.404       .  A
C1160      C1210   1.480       .  S
C1161      C1162   1.404       .  A
C1161      H1166   1.084       .  S
C1162      C1163   1.404       .  A
C1162      C1217   1.481       .  S
C1163      C1164   1.404       .  A
C1163      H1167   1.084       .  S
C1164      C1165   1.404       .  A
C1164      C1230   1.481       .  S
C1165      H1168   1.084       .  S
C1169      C1202   1.477       .  S
C1169      C1319   1.477       .  S
C1169      C1227   1.535       .  S
C1169      C1250   1.535       .  S
C1170      C1198   1.477       .  S
C1170      C1315   1.477       .  S
C1170      C1207   1.535       .  S
C1171      C1237   1.535       .  S
O1172     Cr1190   2.011       .  S
O1173     Cr1190   1.975       .  S
C1174      O1175   1.264   1_545  A
C1174      C1197   1.435       .  S
O1175     Cr1191   2.011       .  S
O1176      C1177   1.258       .  A
C1177      O1178   1.264       .  A
C1177      C1203   1.435       .  S
O1178     Cr1192   2.011       .  S
O1179      C1180   1.258       .  A
C1180      C1199   1.435       .  S
O1181     Cr1190   1.975       .  S
O1182     Cr1190   2.011       .  S
C1183      O1184   1.258       .  A
C1183      C1194   1.435       .  S
O1184     Cr1191   1.975       .  S
O1185      C1186   1.264       .  A
C1186      O1187   1.258       .  A
C1186      C1205   1.435       .  S
O1187     Cr1192   1.975       .  S
O1188      C1189   1.264   1_655  A
C1189      C1201   1.435       .  S
Cr1192     O1193   1.774   1_655  S
C1194      C1195   1.207       .  T
C1196      C1197   1.207       .  T
C1202      C1203   1.207       .  T
C1204      C1205   1.207       .  T
C1206      C1207   1.413       .  A
C1206      C1211   1.397       .  A
C1206      H1327   1.081       .  S
C1207      C1208   1.411       .  A
C1208      C1209   1.398       .  A
C1208      H1213   1.083       .  S
C1209      C1210   1.402       .  A
C1209      H1214   1.083       .  S
C1210      C1211   1.403       .  A
C1211      H1215   1.083       .  S
C1216      C1217   1.402       .  A
C1216      C1221   1.397       .  A
C1216      H1222   1.083       .  S
C1217      C1218   1.403       .  A
C1218      C1219   1.398       .  A
C1218      H1223   1.083       .  S
C1219      C1220   1.413       .  A
C1219      H1224   1.081       .  S
C1220      C1221   1.411       .  A
C1221      H1225   1.083       .  S
C1226      C1227   1.413       .  A
C1226      C1231   1.397       .  A
C1226      H1347   1.081       .  S
C1227      C1228   1.411       .  A
C1228      C1229   1.398       .  A
C1228      H1233   1.083       .  S
C1229      C1230   1.402       .  A
C1229      H1234   1.083       .  S
C1230      C1231   1.403       .  A
C1231      H1350   1.083       .  S
C1236      C1237   1.411       .  A
C1236      C1356   1.398       .  A
C1236      H1357   1.083       .  S
C1237      C1238   1.413       .  A
C1238      C1239   1.397       .  A
C1238      H1243   1.081       .  S
C1239      C1240   1.403       .  A
C1239      H1244   1.083       .  S
C1240      C1356   1.402       .  A
C1240      C1266   1.481       .  S
C1241      H1245   1.083       .  S
C1246      C1251   1.397       .  A
C1246      H1252   1.083       .  S
C1247      C1361   1.402       .  A
C1247      C1248   1.403       .  A
C1248      C1249   1.398       .  A
C1248      H1253   1.083       .  S
C1249      C1250   1.413       .  A
C1249      H1254   1.081       .  S
C1250      C1366   1.411       .  A
C1251      H1255   1.083       .  S
C1256      C1257   1.402       .  A
C1256      C1261   1.397       .  A
C1256      H1262   1.083       .  S
C1257      C1373   1.403       .  A
C1258      C1259   1.398       .  A
C1258      H1263   1.083       .  S
C1259      H1264   1.081       .  S
C1260      C1374   1.413       .  A
C1260      C1261   1.411       .  A
C1261      H1265   1.083       .  S
C1266      C1267   1.404       .  A
C1266      C1271   1.404       .  A
C1267      H1272   1.084       .  S
C1268      C1269   1.404       .  A
C1268      C1362   1.481       .  S
C1269      C1270   1.404       .  A
C1269      H1273   1.084       .  S
C1270      C1372   1.481       .  S
C1271      H1274   1.084       .  S
C1275      C1276   1.404       .  A
C1275      C1280   1.404       .  A
C1275      C1325   1.480       .  S
C1276      C1277   1.404       .  A
C1276      H1281   1.084       .  S
C1277      C1278   1.404       .  A
C1277      C1332   1.481       .  S
C1278      C1279   1.404       .  A
C1278      H1282   1.084       .  S
C1279      C1280   1.404       .  A
C1279      C1345   1.481       .  S
C1280      H1283   1.084       .  S
C1284      C1317   1.477       .  S
C1284      C1342   1.535       .  S
C1284      C1365   1.535   1_556  S
C1285      C1313   1.477       .  S
C1285      C1322   1.535       .  S
C1286      C1352   1.535       .  S
O1287     Cr1305   2.011       .  S
O1288     Cr1305   1.975       .  S
C1289      O1290   1.264   1_545  A
C1289      C1312   1.435       .  S
O1290     Cr1306   2.011       .  S
O1291      C1292   1.258       .  A
C1292      O1293   1.264       .  A
C1292      C1318   1.435       .  S
O1293     Cr1307   2.011       .  S
O1294      C1295   1.258       .  A
C1295      C1314   1.435       .  S
O1296     Cr1305   1.975       .  S
O1297     Cr1305   2.011       .  S
C1298      O1299   1.258       .  A
C1298      C1309   1.435       .  S
O1299     Cr1306   1.975       .  S
O1300      C1301   1.264       .  A
C1301      O1302   1.258       .  A
C1301      C1320   1.435       .  S
O1302     Cr1307   1.975       .  S
O1303      C1304   1.264   1_655  A
C1304      C1316   1.435       .  S
Cr1307     O1308   1.774   1_655  S
C1309      C1310   1.207       .  T
C1311      C1312   1.207       .  T
C1317      C1318   1.207       .  T
C1319      C1320   1.207       .  T
C1321      C1322   1.413   1_554  A
C1321      C1326   1.397       .  A
C1322      C1323   1.411       .  A
C1323      C1324   1.398       .  A
C1323      H1328   1.083       .  S
C1324      C1325   1.402       .  A
C1324      H1329   1.083       .  S
C1325      C1326   1.403   1_556  A
C1326      H1330   1.083       .  S
C1331      C1332   1.402       .  A
C1331      C1336   1.397       .  A
C1331      H1337   1.083       .  S
C1332      C1333   1.403   1_556  A
C1333      C1334   1.398       .  A
C1333      H1338   1.083       .  S
C1334      C1335   1.413   1_554  A
C1334      H1339   1.081       .  S
C1335      C1336   1.411       .  A
C1336      H1340   1.083       .  S
C1341      C1342   1.413   1_554  A
C1341      C1346   1.397       .  A
C1342      C1343   1.411       .  A
C1343      C1344   1.398       .  A
C1343      H1348   1.083       .  S
C1344      C1345   1.402       .  A
C1344      H1349   1.083       .  S
C1345      C1346   1.403   1_556  A
C1351      C1352   1.411       .  A
C1352      C1353   1.413   1_554  A
C1353      C1354   1.397       .  A
C1353      H1358   1.081       .  S
C1354      C1355   1.403   1_556  A
C1354      H1359   1.083       .  S
C1356      H1360   1.083       .  S
C1361      C1366   1.397       .  A
C1361      H1367   1.083       .  S
C1362      C1363   1.403   1_554  A
C1363      C1364   1.398       .  A
C1363      H1368   1.083       .  S
C1364      C1365   1.413   1_556  A
C1364      H1369   1.081       .  S
C1366      H1370   1.083       .  S
C1371      C1372   1.402       .  A
C1371      C1376   1.397       .  A
C1371      H1377   1.083       .  S
C1373      C1374   1.398       .  A
C1373      H1378   1.083       .  S
C1374      H1379   1.081       .  S
C1375      C1376   1.411       .  A
C1376      H1380   1.083       .  S
