geometry optimzed in LAMMPS
_audit_creation_date              2020-11-30 
_audit_creation_method            'lammps2cif' 
_symmetry_space_group_name_H-M    'P1' 
_symmetry_Int_Tables_number       1 
_symmetry_cell_setting            triclinic 
loop_ 
_symmetry_equiv_pos_as_xyz 
  x,y,z 
_cell_length_a                    27.21943407 
_cell_length_b                    27.224138935500065 
_cell_length_c                    36.544561876664716 
_cell_angle_alpha                 89.99060312079494 
_cell_angle_beta                  89.99704333300556 
_cell_angle_gamma                 120.01105099871025 
loop_ 
_atom_site_label 
_atom_site_type_symbol 
_atom_site_fract_x 
_atom_site_fract_y 
_atom_site_fract_z 
_atom_site_charge 
C1          C  0.08385999  0.46479878  0.10568131     0.04700
C2          C  0.07875507  0.00777898  0.13450654    -0.11500
C3          C  0.08960845  0.00761300  0.17133380     0.02200
C4          C  0.15283683  0.49536213  0.16808950    -0.10000
C5          C  0.11940539  0.43682390  0.15963204     0.04700
C6          C  0.08445897  0.42205252  0.12759877    -0.09400
H7          H  0.07266556  0.04163237  0.12376095     0.10300
H8          H  0.17733128  0.50947942  0.19281034     0.07800
H9          H  0.05721760  0.37793390  0.12027835     0.07700
C10         C  0.17528269  0.22036309  0.26303752     0.04700
C11         C  0.14430112  0.16481250  0.25033741    -0.11500
C12         C  0.11681373  0.15221545  0.21727438     0.02200
C13         C  0.11602285  0.19442119  0.19618470    -0.10000
C14         C  0.14309635  0.25106540  0.20838221     0.04700
C15         C  0.17471484  0.26434568  0.24206668    -0.09400
H16         H  0.14545870  0.13060019  0.26493030     0.10300
H17         H  0.09620319  0.18261283  0.16989150     0.07800
H18         H  0.19811963  0.30776296  0.25163715     0.07700
C19         C  0.51018258  0.17149066  0.10140345     0.04700
C20         C  0.45475485  0.14764555  0.11390213    -0.11500
C21         C  0.44366935  0.15788809  0.14902826     0.02200
C22         C  0.48792273  0.19441643  0.17213086    -0.10000
C23         C  0.03738104  0.23907147  0.15885715     0.04700
C24         C  0.05204086  0.21933649  0.12656661    -0.09400
H25         H  0.42013397  0.11579099  0.09748394     0.10300
H26         H  0.47827992  0.19910646  0.20013257     0.07800
H27         H  0.09614419  0.23663893  0.11901106     0.07700
C28         C  0.23769952  0.03225595  0.24646261     0.04700
C29         C  0.21063423  0.46741999  0.24115766    -0.11500
C30         C  0.22436807  0.44713869  0.20852543     0.02200
C31         C  0.28223205  0.47259086  0.19861638    -0.10000
C32         C  0.28718927  0.05585817  0.18866264     0.04700
C33         C  0.27849544  0.07155572  0.22288981    -0.09400
H34         H  0.16677839  0.45045153  0.24916934     0.10300
H35         H  0.29489666  0.46209783  0.17323558     0.07800
H36         H  0.30680485  0.11462006  0.23232760     0.07700
C37         C  0.43695230  0.27433439  0.24406820     0.04700
C38         C  0.39748644  0.27289918  0.21931975    -0.11500
C39         C  0.41100985  0.28648827  0.18286145     0.00700
C40         C  0.99325639  0.35369733  0.19617086    -0.10000
C41         C  0.02546061  0.32961517  0.20879978     0.04700
C42         C  0.00823261  0.29778147  0.24244820    -0.09400
H43         H  0.35479809  0.26020486  0.22860917     0.10300
H44         H  0.00221575  0.37562497  0.17054904     0.07800
H45         H  0.03154615  0.27818203  0.25291251     0.07700
C46         C  0.28574644  0.37954791  0.09717831     0.04700
C47         C  0.24877086  0.38507853  0.12234772    -0.11500
C48         C  0.23156702  0.35243845  0.15549851     0.02200
C49         C  0.25693670  0.31940370  0.16358724    -0.10000
C50         C  0.29278944  0.31407918  0.13837435     0.04700
C51         C  0.30314939  0.34038371  0.10462111    -0.09400
H52         H  0.23457935  0.41501808  0.11661598     0.10300
H53         H  0.25104918  0.29955350  0.18999100     0.07800
H54         H  0.33323229  0.33756635  0.08639296     0.07700
C55         C  0.18543072  0.34976919  0.18038315     0.03900
C56         C  0.17929462  0.39837033  0.18603147     0.03900
C57         C  0.12416996  0.39202049  0.18199148     0.03900
C58         C  0.07581547  0.33656195  0.18691383     0.03900
C59         C  0.08223649  0.28829599  0.18141963     0.03900
C60         C  0.13728994  0.29520238  0.18640351     0.03900
O61         O  0.32541550  0.12100964  0.41536506    -0.76900
C62         C  0.35766658  0.30010799  0.41074368     0.84100
O63         O  0.16879202  0.08694618  0.38425522    -0.78000
O64         O  0.26384196  0.26032727  0.29636869    -0.79500
O65         O  0.39746963  0.20194714  0.28894181    -0.79300
O66         O  0.38686510  0.13362067  0.37155060    -0.77900
Zn67       Zn  0.30282324  0.17797091  0.39806874     1.55700
O68         O  0.39655963  0.28303231  0.29875026    -0.79300
Cd69       Cd  0.34204487  0.14505112  0.32841199     1.59700
Cd70       Cd  0.21404719  0.12930199  0.33630229     1.59600
O71         O  0.28719033  0.06937615  0.30124667    -0.79300
O72         O  0.29644882  0.17830456  0.34710805    -1.89800
Cd73       Cd  0.32555726  0.25951180  0.33189547     1.59900
O74         O  0.20808655  0.07423574  0.29292437    -0.79300
O75         O  0.34178608  0.30996410  0.37993091    -0.77900
C76         C  0.18202298  0.11043812  0.41575252     0.84600
C77         C  0.37048884  0.12209246  0.40480328     0.84200
O78         O  0.36216884  0.25612903  0.41509465    -0.76900
C79         C  0.41336652  0.25358281  0.28091986     0.85100
O80         O  0.22750842  0.15764263  0.42020334    -0.77000
C81         C  0.24115432  0.05528660  0.28384511     0.85200
C82         C  0.21031937  0.22561353  0.29584727     0.85500
O83         O  0.18696090  0.18518581  0.31915520    -0.79400
C84         C  0.26856420  0.43241025  0.57265032     0.04700
C85         C  0.23202543  0.43488895  0.54711629    -0.11500
C86         C  0.29203364  0.02674993  0.55337049     0.02200
C87         C  0.32902984  0.02250437  0.52867656    -0.10000
C88         C  0.35832169  0.99388365  0.53834554     0.04700
C89         C  0.32571055  0.45224317  0.56247737    -0.09400
H90         H  0.18874152  0.42216149  0.55506122     0.10300
H91         H  0.33354211  0.04058173  0.50183645     0.07800
H92         H  0.35493490  0.45141154  0.58223412     0.07700
C93         C  0.15445327  0.07959766  0.44980967     0.04700
C94         C  0.09859172  0.06226637  0.46151079    -0.11500
C95         C  0.08205649  0.04352210  0.49832267     0.02200
C96         C  0.08867636  0.48139141  0.49394752    -0.10000
C97         C  0.17581458  0.05723433  0.50960294     0.04700
C98         C  0.19139300  0.07500801  0.47395981    -0.09400
H99         H  0.06944480  0.06610129  0.44316201     0.10300
H100        H  0.08013921  0.45826951  0.51927991     0.07800
H101        H  0.23412859  0.08721610  0.46507683     0.07700
C102        C  0.07918127  0.18202106  0.59145711     0.04700
C103        C  0.13401920  0.21082620  0.57770895    -0.11500
C104        C  0.14555213  0.20005037  0.54282243     0.02200
C105        C  0.10279175  0.15869127  0.52100079    -0.10000
C106        C  0.04831911  0.12349482  0.53550582     0.04700
C107        C  0.03620999  0.13660798  0.57105844    -0.09400
H108        H  0.16746482  0.24538920  0.59329186     0.10300
H109        H  0.11265915  0.15326804  0.49322383     0.07800
H110        H  0.99470140  0.11111105  0.58313316     0.07700
C111        C  0.35315696  0.32675679  0.44496505     0.04700
C112        C  0.39350762  0.38018824  0.45962123    -0.11500
C113        C  0.38728109  0.39467015  0.49635038     0.02200
C114        C  0.34114364  0.35517029  0.51722608    -0.10000
C115        C  0.30017406  0.30464796  0.50137064     0.04700
C116        C  0.30621902  0.29084345  0.46598826    -0.09400
H117        H  0.42939262  0.40953692  0.44318191     0.10300
H118        H  0.33606847  0.36427153  0.54530672     0.07800
H119        H  0.27391453  0.25069040  0.45475961     0.07700
C120        C  0.00195998  0.38642975  0.59509283     0.04700
C121        C  0.52813142  0.35202040  0.56081942    -0.11500
C122        C  0.51088373  0.34841554  0.52488291     0.02200
C123        C  0.49942066  0.38888186  0.51019186    -0.10000
C124        C  0.50278667  0.43256140  0.53233291     0.04700
C125        C  0.52212624  0.43691475  0.56935015    -0.09400
H126        H  0.53747145  0.32020931  0.57117931     0.10300
H127        H  0.48745997  0.38582373  0.48176093     0.07800
H128        H  0.03610414  0.47290383  0.57615992     0.07700
C129        C  0.41169383  0.12991073  0.43370315     0.04700
C130        C  0.41316679  0.08641263  0.45431723    -0.11500
C131        C  0.44327142  0.09961892  0.48832263     0.02200
C132        C  0.46738308  0.15555416  0.50143534    -0.10000
C133        C  0.46884148  0.19826814  0.47953368     0.04700
C134        C  0.44274251  0.18570209  0.44573755    -0.09400
H135        H  0.39043138  0.04304678  0.44458978     0.10300
H136        H  0.93398486  0.12906227  0.55341156     0.07800
H137        H  0.44178387  0.21928903  0.43022574     0.07700
C138        C  0.40764364  0.00059076  0.51505224     0.03900
C139        C  0.42556335  0.45257431  0.51170357     0.03900
C140        C  0.48425462  0.47216905  0.51734483     0.03900
C141        C  0.02397979  0.02717050  0.51167248     0.03900
C142        C  0.00764852  0.06901785  0.51642085     0.03900
C143        C  0.45306052  0.05677869  0.50857638     0.03900
C144        C  0.25361654  0.30332830  0.76631514     0.04700
C145        C  0.28820438  0.35898232  0.77809672    -0.11500
C146        C  0.31944530  0.37152458  0.80975474     0.02200
C147        C  0.31858903  0.32806940  0.83076938    -0.10000
C148        C  0.28704258  0.27046827  0.81969662     0.04700
C149        C  0.25368335  0.25851859  0.78675503    -0.09400
H150        H  0.28815107  0.39381634  0.76358756     0.10300
H151        H  0.34162797  0.34024178  0.85599486     0.07800
H152        H  0.22806640  0.21517102  0.77742354     0.07700
C153        C  0.34402718  0.05199235  0.92334213     0.04700
C154        C  0.38774583  0.53267596  0.88496825    -0.11500
C155        C  0.36808253  0.52710449  0.84948727     0.02200
C156        C  0.27882896  0.02387815  0.85877679    -0.10000
C157        C  0.30977612  0.08179720  0.86903044     0.04700
C158        C  0.34271609  0.09547620  0.90225122    -0.09400
H159        H  0.40284719  0.50463173  0.89436890     0.10300
H160        H  0.25562314  0.01075755  0.83357068     0.07800
H161        H  0.36727903  0.13915841  0.91118366     0.07700
C162        C  0.18960344  0.48898401  0.77807337     0.04700
C163        C  0.14235165  0.45332529  0.79902544    -0.11500
C164        C  0.13344237  0.46950312  0.83290113     0.02200
C165        C  0.14687092  0.04470093  0.83016696    -0.10000
C166        C  0.20431892  0.07003729  0.81941231     0.04700
C167        C  0.21654511  0.04859412  0.78652399    -0.09400
H168        H  0.10950992  0.41332877  0.78765953     0.10300
H169        H  0.13494858  0.05506362  0.85576235     0.07800
H170        H  0.26003849  0.06547856  0.77771071     0.07700
C171        C  0.41808687  0.34370774  0.92366005     0.04700
C172        C  0.37558109  0.29872374  0.90225542    -0.11500
C173        C  0.39078527  0.27966150  0.86956934     0.02200
C174        C  0.44903363  0.30640356  0.86035289    -0.10000
C175        C  0.49016833  0.34848596  0.88284328     0.04700
C176        C  0.47461255  0.36629006  0.91358663    -0.09400
H177        H  0.33151230  0.27965934  0.91032932     0.10300
H178        H  0.46304563  0.29626497  0.83544644     0.07800
H179        H  0.99368987  0.43664912  0.91184183     0.07700
C180        C  0.13179768  0.13196164  0.92496631     0.04700
C181        C  0.17540239  0.13185408  0.90310541    -0.11500
C182        C  0.19408276  0.16430289  0.86953742     0.02200
C183        C  0.16693326  0.19493390  0.85922264    -0.10000
C184        C  0.12604737  0.19626484  0.88171224     0.04700
C185        C  0.10977126  0.16602829  0.91381219    -0.09400
H186        H  0.19422328  0.10691407  0.91178085     0.10300
H187        H  0.17586711  0.21675579  0.83348352     0.07800
H188        H  0.07589327  0.16643498  0.92931836     0.07700
C189        C  0.46802439  0.21790162  0.76539449     0.04700
C190        C  0.02810545  0.25493679  0.80739900    -0.11500
C191        C  0.47191486  0.15383091  0.80967807     0.02200
C192        C  0.43083070  0.15620246  0.83138226    -0.10000
C193        C  0.40414873  0.18683506  0.81994549     0.04700
C194        C  0.42457341  0.21935467  0.78660037    -0.09400
H195        H  0.07065677  0.26804405  0.79753777     0.10300
H196        H  0.42158426  0.13530064  0.85737561     0.07800
H197        H  0.40702488  0.24522502  0.77747178     0.07700
C198        C  0.24327297  0.16894575  0.84652598     0.03900
C199        C  0.29178080  0.22418347  0.84087829     0.03900
C200        C  0.34684799  0.23062659  0.84644126     0.03900
C201        C  0.35360301  0.18206383  0.84141272     0.03900
C202        C  0.30499622  0.12682796  0.84665710     0.03900
C203        C  0.24988610  0.12030122  0.84117303     0.03900
O204        O  0.99104327  0.96172479  0.08558397    -0.76900
C205        C  0.51627539  0.13730701  0.07237945     0.84100
O206        O  0.31851362  0.41270345  0.03611347    -0.78000
O207        O  0.43370657  0.08968507  0.95566976    -0.79500
O208        O  0.08213040  0.04332974  0.95965202    -0.79300
O209        O  0.05436871  0.46372178  0.04436719    -0.77900
Zn210      Zn  0.46164216  0.01150820  0.06548501     1.55700
O211        O  0.08703690  0.12159220  0.98193156    -0.79300
Cd212      Cd  0.02088521  0.98373463  0.99817289     1.59700
Cd213      Cd  0.37768974  0.45497428  0.99285253     1.59600
O214        O  0.44835539  0.38775765  0.98078099    -0.79300
O215        O  0.46150484  0.00995713  0.01370196    -1.89800
Cd216      Cd  0.49293456  0.08931553  0.99421269     1.59900
O217        O  0.37866033  0.39532779  0.95471830    -0.79300
O218        O  0.50697499  0.14410765  0.03891450    -0.77900
C219        C  0.32407142  0.42323190  0.07058825     0.84600
C220        C  0.04073256  0.45690616  0.07820350     0.84200
O221        O  0.51410776  0.09177129  0.08328373    -0.76900
C222        C  0.10213834  0.09711430  0.95827674     0.85100
O223        O  0.37061844  0.46223379  0.08388283    -0.77000
C224        C  0.41096590  0.37364017  0.95573974     0.85200
C225        C  0.37964155  0.05792380  0.95604857     0.85500
O226        O  0.36337029  0.51128107  0.96166179    -0.79400
O227        O  0.06221212  0.25223384  0.61373393    -0.76900
C228        C  0.04690216  0.39183694  0.62031297     0.84100
O229        O  0.25571697  0.42757275  0.63872460    -0.78000
O230        O  0.14025294  0.45242106  0.72314266    -0.79500
O231        O  0.02757656  0.24047538  0.72951440    -0.79300
O232        O  0.08735884  0.20826621  0.65430396    -0.77900
Zn233      Zn  0.11672277  0.33421503  0.62739152     1.55700
O234        O  0.02707516  0.32216513  0.73675581    -0.79300
Cd235      Cd  0.10060819  0.26303133  0.69871030     1.59700
Cd236      Cd  0.21132603  0.39070292  0.68837412     1.59600
O237        O  0.16292039  0.26547553  0.73531970    -0.79300
O238        O  0.12800872  0.34146447  0.67861485    -1.89800
Cd239      Cd  0.08378785  0.37678228  0.69682395     1.59900
O240        O  0.23968292  0.33830820  0.71047357    -0.79300
O241        O  0.03889913  0.39019555  0.65483335    -0.77900
C242        C  0.23974725  0.40396893  0.60730652     0.84600
C243        C  0.07027251  0.21153346  0.62227043     0.84200
O244        O  0.08369822  0.38115503  0.60673758    -0.76900
C245        C  0.01046606  0.27081260  0.74593460     0.85100
O246        O  0.19169736  0.35907803  0.60310523    -0.77000
C247        C  0.21670170  0.29894737  0.73457420     0.85200
C248        C  0.18649675  0.46665872  0.74036973     0.85500
O249        O  0.22001293  0.44867572  0.73061618    -0.79400
C250        C  0.09344967  0.22198187  0.87103226    -0.11700
C251        C  0.05732101  0.23317048  0.86307814    -0.13300
C252        C  0.02719503  0.41110284  0.85325774    -0.11700
C253        C  0.07703535  0.43812214  0.84685242    -0.13300
C254        C  0.34644136  0.42967516  0.82157653    -0.11700
C255        C  0.35966885  0.47738328  0.83039537    -0.13300
C256        C  0.49072592  0.25453454  0.49291629    -0.11700
C257        C  0.50221450  0.30010587  0.50458791    -0.13300
C258        C  0.20165030  0.23466687  0.52955596    -0.11700
C259        C  0.24867007  0.26729710  0.51949297    -0.13300
C260        C  0.25471257  0.04639867  0.54209847    -0.11700
C261        C  0.21702137  0.05327500  0.53138486    -0.13300
C262        C  0.32989754  0.29352857  0.14941495    -0.11700
C263        C  0.36800666  0.28729066  0.16061808    -0.13300
C264        C  0.38641120  0.12633564  0.16133770    -0.11700
C265        C  0.33857753  0.09455844  0.17064161    -0.13300
C266        C  0.09801880  0.09676789  0.20340719    -0.11700
C267        C  0.09226032  0.05290320  0.19223941    -0.13300
C268        C  0.06872842  0.96245390  0.11206993     0.04700
C269        C  0.12048840  0.52144553  0.11392069    -0.11500
C270        C  0.15355599  0.53696252  0.14501318     0.02200
C271        C  0.09718178  0.96487753  0.18654762    -0.10000
C272        C  0.09493488  0.92193799  0.16409204     0.04700
C273        C  0.07856163  0.91959859  0.12648088    -0.09400
H274        H  0.11943652  0.55427254  0.09753688     0.10300
H275        H  0.10534037  0.96548846  0.21554358     0.07800
H276        H  0.07224071  0.88448201  0.10932875     0.07700
C277        C  0.20790743  0.72914094  0.24550024     0.04700
C278        C  0.21405202  0.69422093  0.22043188    -0.11500
C279        C  0.19536197  0.68954220  0.18481465     0.02200
C280        C  0.17347907  0.72348839  0.17231963    -0.10000
C281        C  0.16748295  0.76047311  0.19666453     0.04700
C282        C  0.18346112  0.76181100  0.23405827    -0.09400
H283        H  0.23091723  0.66747915  0.22945692     0.10300
H284        H  0.16179638  0.72103898  0.14392225     0.07800
H285        H  0.17863365  0.78919049  0.25344020     0.07700
C286        C  0.51284294  0.64971016  0.11843090     0.04700
C287        C  0.47181764  0.61420749  0.14334072    -0.11500
C288        C  0.47208626  0.62943207  0.17920917     0.02200
C289        C  0.51163107  0.68366125  0.19162325    -0.10000
C290        C  0.04940176  0.72646676  0.16350595     0.04700
C291        C  0.06032097  0.71260458  0.12790342    -0.09400
H292        H  0.43921931  0.57196443  0.13486379     0.10300
H293        H  0.51140079  0.69423497  0.22009372     0.07800
H294        H  0.10095636  0.73861182  0.11484402     0.07700
C295        C  0.25441616  0.51044824  0.26291075     0.04700
C296        C  0.20339182  0.97531299  0.23428561    -0.11500
C297        C  0.20970873  0.95952699  0.19781479     0.02200
C298        C  0.25217207  0.00098407  0.17545589    -0.10000
C299        C  0.32443234  0.51385577  0.22103317     0.04700
C300        C  0.31049877  0.53060204  0.25289058    -0.09400
H301        H  0.17223550  0.94390220  0.25259390     0.10300
H302        H  0.25880407  0.99123198  0.14803426     0.07800
H303        H  0.34466756  0.56455576  0.26845767     0.07700
C304        C  0.44268453  0.76334353  0.25062538     0.04700
C305        C  0.40423796  0.76809287  0.22811404    -0.11500
C306        C  0.41946649  0.79189155  0.19379211     0.00700
C307        C  0.97535863  0.81216596  0.17755682    -0.10000
C308        C  0.01476346  0.80652833  0.19930680     0.04700
C309        C  0.99910720  0.78546240  0.23585978    -0.09400
H310        H  0.36216460  0.75605082  0.23839684     0.10300
H311        H  0.98582929  0.82810032  0.14990595     0.07800
H312        H  0.02899234  0.78140728  0.25336040     0.07700
C313        C  0.30679842  0.90224336  0.10750552     0.04700
C314        C  0.26057210  0.90023215  0.12669445    -0.11500
C315        C  0.24613647  0.87575092  0.16245694     0.02200
C316        C  0.28068019  0.85616531  0.17790977    -0.10000
C317        C  0.32092265  0.85196324  0.15644449     0.04700
C318        C  0.33355405  0.87462208  0.12176331    -0.09400
H319        H  0.23554326  0.91596174  0.11355911     0.10300
H320        H  0.27457694  0.84143648  0.20582154     0.07800
H321        H  0.36763787  0.87411107  0.10654117     0.07700
C322        C  0.18974734  0.86009988  0.17986242     0.03900
C323        C  0.17108660  0.90052378  0.18320180     0.03900
C324        C  0.11245166  0.88170456  0.17941028     0.03900
C325        C  0.07238562  0.82343017  0.18436352     0.03900
C326        C  0.09011175  0.78260249  0.18099888     0.03900
C327        C  0.14895919  0.80100738  0.18331958     0.03900
O328        O  0.30885585  0.61743488  0.42201286    -0.76900
C329        C  0.34011774  0.79612986  0.41338826     0.84100
O330        O  0.15559696  0.57900181  0.36986472    -0.78000
O331        O  0.27559363  0.75817781  0.29348795    -0.79500
O332        O  0.39859798  0.69017307  0.29607749    -0.79300
O333        O  0.38153007  0.63457082  0.38619881    -0.77900
Zn334      Zn  0.28249217  0.66865439  0.40061134     1.55700
O335        O  0.40534026  0.77453915  0.30625755    -0.79300
Cd336      Cd  0.34114919  0.63993783  0.33819628     1.59700
Cd337      Cd  0.21406339  0.62365632  0.32815477     1.59600
O338        O  0.28605513  0.55805194  0.31911308    -0.79300
O339        O  0.29178402  0.67295870  0.34944913    -1.89800
Cd340      Cd  0.32925389  0.75476319  0.33405939     1.59900
O341        O  0.21691015  0.56494007  0.29131725    -0.79300
O342        O  0.34086758  0.80941623  0.37966462    -0.77900
C343        C  0.15748947  0.59231722  0.40356588     0.84600
C344        C  0.35708206  0.62139758  0.41739918     0.84200
O345        O  0.32929631  0.74639784  0.42253067    -0.76900
C346        C  0.41904358  0.74276703  0.28805112     0.85100
O347        O  0.20008672  0.63654730  0.41652526    -0.77000
C348        C  0.24871453  0.54295004  0.29381309     0.85200
C349        C  0.22476772  0.72363006  0.28292866     0.85500
O350        O  0.19343237  0.67556774  0.29824165    -0.79400
C351        C  0.30273952  0.96565372  0.59607064     0.04700
C352        C  0.28190481  0.00144251  0.58731467    -0.11500
C353        C  0.24863714  0.45252253  0.51164821     0.02200
C354        C  0.30421780  0.46939996  0.50028874    -0.10000
C355        C  0.34404400  0.47053306  0.52570731     0.04700
C356        C  0.34326589  0.96366251  0.57244836    -0.09400
H357        H  0.25014105  0.00254393  0.60483375     0.10300
H358        H  0.31617191  0.48174742  0.47215311     0.07800
H359        H  0.36354881  0.94016890  0.58108406     0.07700
C360        C  0.12165771  0.54772944  0.43009222     0.04700
C361        C  0.08089170  0.54861021  0.45382161    -0.11500
C362        C  0.06237497  0.51392202  0.48597378     0.02200
C363        C  0.12155879  0.04178954  0.52226636    -0.10000
C364        C  0.12904370  0.48117577  0.46984909     0.04700
C365        C  0.14204075  0.51112755  0.43744692    -0.09400
H366        H  0.06485041  0.57698078  0.44781282     0.10300
H367        H  0.11033558  0.02880011  0.55045007     0.07800
H368        H  0.17494861  0.51206256  0.42005317     0.07700
C369        C  0.08888535  0.66655455  0.59479356     0.04700
C370        C  0.14462256  0.68397209  0.58520646    -0.11500
C371        C  0.15715758  0.67462684  0.55024523     0.02200
C372        C  0.11425705  0.63573627  0.52719460    -0.10000
C373        C  0.05710646  0.60837052  0.53847473     0.04700
C374        C  0.04430835  0.62705650  0.57195795    -0.09400
H375        H  0.17892228  0.71567647  0.60194131     0.10300
H376        H  0.12550482  0.63011338  0.49988931     0.07800
H377        H  0.00068262  0.61261795  0.57943810     0.07700
C378        C  0.33629472  0.83001030  0.44437476     0.04700
C379        C  0.37930465  0.88305833  0.45863096    -0.11500
C380        C  0.37470888  0.89943534  0.49544126     0.02200
C381        C  0.33058059  0.85914704  0.51761647    -0.10000
C382        C  0.28860622  0.80818762  0.50259993     0.04700
C383        C  0.28860575  0.79736396  0.46583283    -0.09400
H384        H  0.41674849  0.90957840  0.44248597     0.10300
H385        H  0.32992210  0.86551580  0.54663056     0.07800
H386        H  0.25454245  0.75742436  0.45518709     0.07700
C387        C  0.02463308  0.88165904  0.57580257     0.04700
C388        C  0.48282946  0.83985647  0.58449272    -0.11500
C389        C  0.45532466  0.82496887  0.55123937     0.02200
C390        C  0.45718168  0.86644586  0.52773927    -0.10000
C391        C  0.48430982  0.92390034  0.53851332     0.04700
C392        C  0.51607179  0.93899172  0.57192028    -0.09400
H393        H  0.48339588  0.80707471  0.60120734     0.10300
H394        H  0.43816025  0.85359404  0.50102425     0.07800
H395        H  0.01946600  0.95824416  0.58238315     0.07700
C396        C  0.38835970  0.62536302  0.45134816     0.04700
C397        C  0.40525420  0.58677466  0.46379045    -0.11500
C398        C  0.42535569  0.59055957  0.50043359     0.02200
C399        C  0.42833352  0.63354847  0.52334064    -0.10000
C400        C  0.41464663  0.67315709  0.50965376     0.04700
C401        C  0.39519735  0.66894325  0.47431812    -0.09400
H402        H  0.40154900  0.55356068  0.44573196     0.10300
H403        H  0.01188450  0.67451860  0.52100172     0.07800
H404        H  0.38395281  0.69982706  0.46466170     0.07700
C405        C  0.40487495  0.49124773  0.51470201     0.03900
C406        C  0.41908557  0.95513352  0.51184496     0.03900
C407        C  0.47575790  0.96652385  0.51677535     0.03900
C408        C  0.01546099  0.51146428  0.51007508     0.03900
C409        C  0.01158228  0.56136004  0.51560037     0.03900
C410        C  0.44421505  0.55042019  0.51394740     0.03900
C411        C  0.21336367  0.78297298  0.78428600     0.04700
C412        C  0.20877616  0.81884243  0.80922582    -0.11500
C413        C  0.22979350  0.82510510  0.84428230     0.02200
C414        C  0.25117014  0.79073613  0.85691159    -0.10000
C415        C  0.25528993  0.75228863  0.83291011     0.04700
C416        C  0.23779774  0.75007283  0.79566985    -0.09400
H417        H  0.19223322  0.84589783  0.80024624     0.10300
H418        H  0.26504607  0.79475007  0.88495031     0.07800
H419        H  0.24222567  0.72247940  0.77626467     0.07700
C420        C  0.38311647  0.56883820  0.90980648     0.04700
C421        C  0.31062615  0.99590580  0.91219603    -0.11500
C422        C  0.27878607  0.98169603  0.88076069     0.02200
C423        C  0.34797403  0.56238922  0.83641787    -0.10000
C424        C  0.34455110  0.60158114  0.86008370     0.04700
C425        C  0.36089633  0.60335365  0.89758765    -0.09400
H426        H  0.31143859  0.96200955  0.92743330     0.10300
H427        H  0.33405432  0.55831888  0.80834332     0.07800
H428        H  0.35608896  0.63094147  0.91679473     0.07700
C429        C  0.17161645  0.00464560  0.76555378     0.04700
C430        C  0.11595031  0.98536701  0.77659575    -0.11500
C431        C  0.10357284  0.00361201  0.80846501     0.02200
C432        C  0.17485252  0.51963180  0.84915710    -0.10000
C433        C  0.22356934  0.55804048  0.82946526     0.04700
C434        C  0.23047758  0.54243933  0.79298611    -0.09400
H435        H  0.08080593  0.95131784  0.76174927     0.10300
H436        H  0.16762174  0.52915729  0.87651704     0.07800
H437        H  0.26557509  0.57217368  0.77617402     0.07700
C438        C  0.40790793  0.86594206  0.91282146     0.04700
C439        C  0.36804627  0.81219055  0.89821907    -0.11500
C440        C  0.37583224  0.79621101  0.86225039     0.02200
C441        C  0.42485568  0.83467080  0.84272451    -0.10000
C442        C  0.46628320  0.88458769  0.85930038     0.04700
C443        C  0.45634534  0.90112589  0.89278658    -0.09400
H444        H  0.33282397  0.78253459  0.91497825     0.10300
H445        H  0.43237127  0.82529051  0.81539624     0.07800
H446        H  0.98184846  0.95008139  0.89679755     0.07700
C447        C  0.11644078  0.60582977  0.91858937     0.04700
C448        C  0.16829030  0.61528120  0.90285342    -0.11500
C449        C  0.18229553  0.63517016  0.86579954     0.02200
C450        C  0.14349609  0.64477985  0.84607255    -0.10000
C451        C  0.09591685  0.64055138  0.86346319     0.04700
C452        C  0.08212034  0.62011811  0.89858773    -0.09400
H453        H  0.19742150  0.60809599  0.91904924     0.10300
H454        H  0.15155588  0.65837900  0.81790596     0.07800
H455        H  0.04368464  0.61577687  0.91079766     0.07700
C456        C  0.49162527  0.76123517  0.78207329     0.04700
C457        C  0.01605373  0.73317517  0.79490657    -0.11500
C458        C  0.51387437  0.73641525  0.84046658     0.02200
C459        C  0.45935974  0.71910281  0.85358018    -0.10000
C460        C  0.41885309  0.72055262  0.83043872     0.04700
C461        C  0.43479631  0.73972917  0.79359331    -0.09400
H462        H  0.05519231  0.73998267  0.78232901     0.10300
H463        H  0.44819212  0.70268384  0.88109151     0.07800
H464        H  0.40382040  0.73902082  0.77468196     0.07700
C465        C  0.24057396  0.65497539  0.84993190     0.03900
C466        C  0.27795987  0.71465073  0.84594725     0.03900
C467        C  0.33752965  0.73676396  0.84786681     0.03900
C468        C  0.35918178  0.69882947  0.84365710     0.03900
C469        C  0.32185264  0.63905705  0.84672190     0.03900
C470        C  0.26211026  0.61699103  0.84466611     0.03900
O471        O  0.99839486  0.46048794  0.08970043    -0.76900
C472        C  0.51134959  0.61855645  0.08401508     0.84100
O473        O  0.33042900  0.91956422  0.04429898    -0.78000
O474        O  0.44620722  0.59401004  0.96091880    -0.79500
O475        O  0.06946652  0.52843387  0.96016102    -0.79300
O476        O  0.05740163  0.96927229  0.04640811    -0.77900
Zn477      Zn  0.45102609  0.49255746  0.06531598     1.55700
O478        O  0.08039405  0.61295688  0.97540283    -0.79300
Cd479      Cd  0.01136416  0.47500843  0.00043027     1.59700
Cd480      Cd  0.38036031  0.96371018  0.99914211     1.59600
O481        O  0.45025896  0.89872671  0.97010886    -0.79300
O482        O  0.45607575  0.50160565  0.01409768    -1.89800
Cd483      Cd  0.49555346  0.58499586  0.00286878     1.59900
O484        O  0.37625770  0.90987332  0.95614646    -0.79300
O485        O  0.50826729  0.63507542  0.05163951    -0.77900
C486        C  0.33787001  0.93963898  0.07668095     0.84600
C487        C  0.03600686  0.95975839  0.07876144     0.84200
O488        O  0.50165648  0.56807880  0.08945337    -0.76900
C489        C  0.09218676  0.58196450  0.95499442     0.85100
O490        O  0.38233802  0.98601982  0.08497344    -0.77000
C491        C  0.40787822  0.88839776  0.94971455     0.85200
C492        C  0.39649918  0.56047290  0.94796274     0.85500
O493        O  0.35529099  0.02026148  0.98086853    -0.79400
O494        O  0.10483014  0.75728104  0.60688373    -0.76900
C495        C  0.05624815  0.88134308  0.60898209     0.84100
O496        O  0.26942971  0.93085402  0.65656395    -0.78000
O497        O  0.13596991  0.95481868  0.71012346    -0.79500
O498        O  0.01461588  0.73957609  0.71896305    -0.79300
O499        O  0.07823079  0.69827214  0.65418768    -0.77900
Zn500      Zn  0.13803461  0.83686391  0.62593004     1.55700
O501        O  0.02483063  0.82430908  0.73208735    -0.79300
Cd502      Cd  0.09238485  0.75850956  0.69544356     1.59700
Cd503      Cd  0.20914716  0.88854736  0.69879380     1.59600
O504        O  0.14441561  0.75507081  0.73708363    -0.79300
O505        O  0.13064506  0.83936404  0.67737483    -1.89800
Cd506      Cd  0.08153421  0.87389448  0.68909418     1.59900
O507        O  0.22760641  0.83614484  0.73092974    -0.79300
O508        O  0.04067868  0.88301007  0.64176035    -0.77900
C509        C  0.26482626  0.92099780  0.62209799     0.84600
C510        C  0.08575365  0.70758599  0.61985508     0.84200
O511        O  0.09507361  0.86936401  0.60249447    -0.76900
C512        C  0.00346242  0.77129701  0.73906095     0.85100
O513        O  0.21908527  0.88161968  0.60822200    -0.77000
C514        C  0.19580056  0.78867174  0.74695360     0.85200
C515        C  0.17528815  0.97094148  0.73420044     0.85500
O516        O  0.20779863  0.94951455  0.73524348    -0.79400
C517        C  0.06308879  0.66279409  0.84816510    -0.11700
C518        C  0.03358591  0.68251307  0.84110998    -0.13300
C519        C  0.00017131  0.93507689  0.83065613    -0.11700
C520        C  0.04606652  0.97152393  0.82062774    -0.13300
C521        C  0.23839215  0.87494145  0.86302194    -0.11700
C522        C  0.25163065  0.92303664  0.87049267    -0.13300
C523        C  0.42304017  0.72149801  0.52987452    -0.11700
C524        C  0.43342937  0.76764483  0.53982354    -0.13300
C525        C  0.20966989  0.71830891  0.53579192    -0.11700
C526        C  0.24820348  0.76175889  0.52415569    -0.13300
C527        C  0.20671995  0.45586555  0.48958371    -0.11700
C528        C  0.16726978  0.46151642  0.48032697    -0.13300
C529        C  0.35172072  0.82585630  0.16915213    -0.11700
C530        C  0.38240530  0.80797911  0.17724255    -0.13300
C531        C  0.42733773  0.58734550  0.20092776    -0.11700
C532        C  0.38197805  0.54858519  0.20975733    -0.13300
C533        C  0.19095011  0.64251749  0.16445899    -0.11700
C534        C  0.17992088  0.59565932  0.15522844    -0.13300
C535        C  0.56184878  0.45363643  0.10643954     0.04700
C536        C  0.59835468  0.01110212  0.11953893    -0.11500
C537        C  0.62221006  0.02216380  0.15381214     0.02200
C538        C  0.60754836  0.47441789  0.17708632    -0.10000
C539        C  0.59172284  0.42187048  0.16089878     0.04700
C540        C  0.56756972  0.41113067  0.12503069    -0.09400
H541        H  0.59908436  0.04560374  0.10402671     0.10300
H542        H  0.62223582  0.48313716  0.20498003     0.07800
H543        H  0.55453848  0.37107837  0.11156774     0.07700
C544        C  0.71164313  0.23567718  0.24396547     0.04700
C545        C  0.70796153  0.19341418  0.22111503    -0.11500
C546        C  0.67912887  0.18153385  0.18841204     0.02200
C547        C  0.65839955  0.21587681  0.17515416    -0.10000
C548        C  0.66306672  0.26114557  0.19634765     0.04700
C549        C  0.68751495  0.26894125  0.23225717    -0.09400
H550        H  0.72371881  0.16584306  0.23042287     0.10300
H551        H  0.63869349  0.20650071  0.14864535     0.07800
H552        H  0.68869768  0.30105074  0.25031044     0.07700
C553        C  0.00925178  0.17534885  0.10502101     0.04700
C554        C  0.95267485  0.15489593  0.11353364    -0.11500
C555        C  0.93737370  0.17199842  0.14489222     0.02200
C556        C  0.97899112  0.21301014  0.16786640    -0.10000
C557        C  0.54346825  0.22760260  0.15836575     0.04700
C558        C  0.55470742  0.21433485  0.12256009    -0.09400
H559        H  0.91984135  0.12073624  0.09731548     0.10300
H560        H  0.96509912  0.22241382  0.19307351     0.07800
H561        H  0.59681785  0.23766570  0.11090654     0.07700
C562        C  0.74948852  0.03273314  0.24816784     0.04700
C563        C  0.69877169  0.47166278  0.23656655    -0.11500
C564        C  0.70561117  0.45723672  0.19985622     0.02200
C565        C  0.75274687  0.49692251  0.17954011    -0.10000
C566        C  0.78834022  0.05859115  0.18718939     0.04700
C567        C  0.78671379  0.07240823  0.22330805    -0.09400
H568        H  0.66366623  0.44143316  0.25318687     0.10300
H569        H  0.75924989  0.48791047  0.15180656     0.07800
H570        H  0.81573121  0.11551433  0.23240523     0.07700
C571        C  0.95988408  0.29113577  0.26181982     0.04700
C572        C  0.93082841  0.31695170  0.24809291    -0.11500
C573        C  0.94683551  0.34744814  0.21617858     0.00700
C574        C  0.46561169  0.30266559  0.17001623    -0.10000
C575        C  0.50765270  0.30644546  0.19442665     0.04700
C576        C  0.49263193  0.29159550  0.23190332    -0.09400
H577        H  0.89325440  0.31175645  0.26202780     0.10300
H578        H  0.47459632  0.31130066  0.14124723     0.07800
H579        H  0.52353624  0.29252098  0.25096997     0.07700
C580        C  0.81475375  0.41316836  0.11547026     0.04700
C581        C  0.75976941  0.39898875  0.12814333    -0.11500
C582        C  0.74280925  0.37843229  0.16486390     0.02200
C583        C  0.78229692  0.37460452  0.18772333    -0.10000
C584        C  0.83391491  0.38430078  0.17349169     0.04700
C585        C  0.84880568  0.40159373  0.13787838    -0.09400
H586        H  0.73162032  0.40568249  0.11057083     0.10300
H587        H  0.77324019  0.36401018  0.21628885     0.07800
H588        H  0.88986287  0.40953902  0.12798794     0.07700
C589        C  0.68393179  0.35972291  0.17893323     0.03900
C590        C  0.66556950  0.39980299  0.18374165     0.03900
C591        C  0.60719770  0.38189335  0.17899389     0.03900
C592        C  0.56656828  0.32345259  0.18124744     0.03900
C593        C  0.58442219  0.28243470  0.17742550     0.03900
C594        C  0.64357114  0.30061930  0.18148904     0.03900
O595        O  0.84255532  0.15858131  0.42171625    -0.76900
C596        C  0.84075624  0.31406098  0.40575589     0.84100
O597        O  0.66097108  0.09399979  0.37174536    -0.78000
O598        O  0.78763734  0.26440031  0.28691483    -0.79500
O599        O  0.91247148  0.20467169  0.29731994    -0.79300
O600        O  0.88741346  0.13156204  0.38315386    -0.77900
Zn601      Zn  0.79531028  0.18679700  0.40067208     1.55700
O602        O  0.91956828  0.28391226  0.31933311    -0.79300
Cd603      Cd  0.84997249  0.14721676  0.33530629     1.59700
Cd604      Cd  0.72085853  0.13653646  0.32981248     1.59600
O605        O  0.79913280  0.07404714  0.30317293    -0.79300
O606        O  0.80034080  0.18200150  0.34933606    -1.89800
Cd607      Cd  0.83653906  0.26238292  0.33162262     1.59900
O608        O  0.71964271  0.07716480  0.29188166    -0.79300
O609        O  0.84362985  0.32094972  0.37121503    -0.77900
C610        C  0.66801558  0.10202264  0.40624456     0.84600
C611        C  0.87711150  0.14083556  0.41590245     0.84200
O612        O  0.82675538  0.26614270  0.41987482    -0.76900
C613        C  0.93364967  0.25853502  0.29588088     0.85100
O614        O  0.71556473  0.13894393  0.41963272    -0.77000
C615        C  0.75310918  0.05793589  0.28499489     0.85200
C616        C  0.73418592  0.23412978  0.28064940     0.85500
O617        O  0.70179327  0.19127981  0.30058410    -0.79400
C618        C  0.80010810  0.46683527  0.59697418     0.04700
C619        C  0.78079906  0.50439241  0.58977993    -0.11500
C620        C  0.75894783  0.97171114  0.52028142     0.02200
C621        C  0.81158830  0.98374141  0.50635491    -0.10000
C622        C  0.85051718  0.97885304  0.52915077     0.04700
C623        C  0.84114617  0.46584043  0.57360934    -0.09400
H624        H  0.74759465  0.50350299  0.60682328     0.10300
H625        H  0.82204154  0.99663267  0.47808951     0.07800
H626        H  0.85610688  0.43650564  0.57934597     0.07700
C627        C  0.62954146  0.05778126  0.43213858     0.04700
C628        C  0.58788740  0.05960760  0.45460648    -0.11500
C629        C  0.57194986  0.02997034  0.48887128     0.02200
C630        C  0.62386928  0.55111146  0.52715315    -0.10000
C631        C  0.64003204  0.99855765  0.47626291     0.04700
C632        C  0.65043545  0.02251581  0.44195233    -0.09400
H633        H  0.56736541  0.08228458  0.44491196     0.10300
H634        H  0.61320849  0.54010209  0.55560378     0.07800
H635        H  0.68281650  0.02135693  0.42509935     0.07700
C636        C  0.59076717  0.19817934  0.57690648     0.04700
C637        C  0.63108415  0.23590761  0.55248873    -0.11500
C638        C  0.63056483  0.22249879  0.51612770     0.02200
C639        C  0.59278705  0.16794315  0.50326999    -0.10000
C640        C  0.55439085  0.12580740  0.52752181     0.04700
C641        C  0.55283764  0.14178691  0.56487891    -0.09400
H642        H  0.66128755  0.27875280  0.56143726     0.10300
H643        H  0.59193434  0.15982417  0.47438638     0.07800
H644        H  0.52033463  0.11205311  0.58325247     0.07700
C645        C  0.83772399  0.35542366  0.43011294     0.04700
C646        C  0.88083028  0.39077031  0.45516935    -0.11500
C647        C  0.86666948  0.40937180  0.48799310     0.02200
C648        C  0.80845227  0.38582115  0.49622575    -0.10000
C649        C  0.76679204  0.35100099  0.47088133     0.04700
C650        C  0.78208603  0.34167738  0.43672863    -0.09400
H651        H  0.92439061  0.40233628  0.44962559     0.10300
H652        H  0.79495319  0.39141794  0.52283006     0.07800
H653        H  0.74881772  0.31258160  0.41828495     0.07700
C654        C  0.53609625  0.39670461  0.58327096     0.04700
C655        C  0.96156073  0.33012386  0.58881324    -0.11500
C656        C  0.93174516  0.31397592  0.55635329     0.02200
C657        C  0.93372684  0.35504773  0.53212646    -0.10000
C658        C  0.96864162  0.41353694  0.53969315     0.04700
C659        C  0.00511779  0.42887479  0.57101035    -0.09400
H660        H  0.96064135  0.29739041  0.60638933     0.10300
H661        H  0.91037889  0.34117026  0.50677493     0.07800
H662        H  0.52712789  0.47145932  0.58659052     0.07700
C663        C  0.90847714  0.14031597  0.44952550     0.04700
C664        C  0.91930138  0.09706496  0.46176632    -0.11500
C665        C  0.93353761  0.09534449  0.49946062     0.02200
C666        C  0.93038218  0.13330748  0.52432587    -0.10000
C667        C  0.92189762  0.17678442  0.51127560     0.04700
C668        C  0.91725669  0.18302586  0.47425269    -0.09400
H669        H  0.91493546  0.06439454  0.44296132     0.10300
H670        H  0.48498284  0.16627968  0.52864427     0.07800
H671        H  0.91296386  0.21874128  0.46513692     0.07700
C672        C  0.90810413  0.99455339  0.51486104     0.03900
C673        C  0.91176603  0.45427524  0.51238805     0.03900
C674        C  0.96570959  0.45783741  0.51600477     0.03900
C675        C  0.52149098  0.02298189  0.51084220     0.03900
C676        C  0.50996947  0.06856354  0.51297547     0.03900
C677        C  0.94958065  0.05282168  0.51269831     0.03900
C678        C  0.72003823  0.28577567  0.78139557     0.04700
C679        C  0.72608204  0.32999470  0.80341938    -0.11500
C680        C  0.74966861  0.33856434  0.83775325     0.02200
C681        C  0.76283576  0.29966018  0.85313817    -0.10000
C682        C  0.75743770  0.25379686  0.83234111     0.04700
C683        C  0.73648260  0.24742572  0.79553406    -0.09400
H684        H  0.71584478  0.36105089  0.79258823     0.10300
H685        H  0.77860328  0.30643343  0.88076429     0.07800
H686        H  0.73435217  0.21420584  0.77816071     0.07700
C687        C  0.88183506  0.06975285  0.91313598     0.04700
C688        C  0.84531213  0.51077744  0.90445899    -0.11500
C689        C  0.81796303  0.50020523  0.87136333     0.02200
C690        C  0.83841681  0.05696355  0.84182293    -0.10000
C691        C  0.84225905  0.10139410  0.86357022     0.04700
C692        C  0.86379270  0.10728199  0.90006773    -0.09400
H693        H  0.84929496  0.47693826  0.91738527     0.10300
H694        H  0.82311361  0.05102433  0.81413806     0.07800
H695        H  0.86558632  0.13982245  0.91797612     0.07700
C696        C  0.67946370  0.48868100  0.78366445     0.04700
C697        C  0.64303288  0.44847702  0.80844447    -0.11500
C698        C  0.64155752  0.46161264  0.84465622     0.02200
C699        C  0.67208095  0.02159700  0.84732450    -0.10000
C700        C  0.72295281  0.06004665  0.82947885     0.04700
C701        C  0.73234557  0.04592087  0.79333549    -0.09400
H702        H  0.61422351  0.40540621  0.79914821     0.10300
H703        H  0.66267050  0.03040831  0.87436046     0.07800
H704        H  0.76889167  0.07604567  0.77768941     0.07700
C705        C  0.91058969  0.36399593  0.91898324     0.04700
C706        C  0.86918901  0.31144907  0.90347464    -0.11500
C707        C  0.87699038  0.29575622  0.86730558     0.02200
C708        C  0.92764092  0.33289261  0.84874472    -0.10000
C709        C  0.97008347  0.38121534  0.86616557     0.04700
C710        C  0.96030965  0.39773800  0.89966558    -0.09400
H711        H  0.83243141  0.28268806  0.91947684     0.10300
H712        H  0.93557811  0.32323258  0.82154111     0.07800
H713        H  0.50788371  0.40134035  0.92898103     0.07700
C714        C  0.60766806  0.09671541  0.91192281     0.04700
C715        C  0.66463557  0.11848415  0.90034120    -0.11500
C716        C  0.68007729  0.13514059  0.86295982     0.02200
C717        C  0.63810729  0.13199311  0.83880411    -0.10000
C718        C  0.58261423  0.11237008  0.85139579     0.04700
C719        C  0.56782066  0.09345436  0.88688452    -0.09400
H720        H  0.69621505  0.12166454  0.91969643     0.10300
H721        H  0.64841162  0.14516479  0.81062393     0.07800
H722        H  0.52441425  0.07830046  0.89580100     0.07700
C723        C  0.98770046  0.25238791  0.78321368     0.04700
C724        C  0.48843219  0.18262574  0.77704915    -0.11500
C725        C  0.01517216  0.23913663  0.84349722     0.02200
C726        C  0.96087215  0.22230278  0.85729405    -0.10000
C727        C  0.91827903  0.21924592  0.83375303     0.04700
C728        C  0.93197472  0.23380759  0.79600867    -0.09400
H729        H  0.52215510  0.18115497  0.76206036     0.10300
H730        H  0.95179533  0.21086285  0.88582527     0.07800
H731        H  0.89999160  0.23129193  0.77725765     0.07700
C732        C  0.74005247  0.15638544  0.84983051     0.03900
C733        C  0.77827042  0.21588341  0.84752710     0.03900
C734        C  0.83783411  0.23713145  0.85180242     0.03900
C735        C  0.85893057  0.19877380  0.84760187     0.03900
C736        C  0.82081406  0.13939641  0.84956354     0.03900
C737        C  0.76130991  0.11815825  0.84566644     0.03900
O738        O  0.48852560  0.95965354  0.08685718    -0.76900
C739        C  0.01730091  0.14039213  0.07743014     0.84100
O740        O  0.83372737  0.42682572  0.05032498    -0.78000
O741        O  0.95504671  0.09944338  0.95754704    -0.79500
O742        O  0.56607058  0.02726505  0.95890345    -0.79300
O743        O  0.54872379  0.46397051  0.04327794    -0.77900
Zn744      Zn  0.96617103  0.01542208  0.06675750     1.55700
O745        O  0.56662948  0.10969077  0.96469270    -0.79300
Cd746      Cd  0.50586952  0.97315324  0.99801769     1.59700
Cd747      Cd  0.88524265  0.46664475  0.00354755     1.59600
O748        O  0.95361238  0.39823076  0.97591766    -0.79300
O749        O  0.97030524  0.01460843  0.01491474    -1.89800
Cd750      Cd  0.00506579  0.09550174  0.00005393     1.59900
O751        O  0.87920702  0.40882044  0.96220508    -0.79300
O752        O  0.00986288  0.14702160  0.04373750    -0.77900
C753        C  0.84598481  0.44694176  0.08281135     0.84600
C754        C  0.52591855  0.44562276  0.07450320     0.84200
O755        O  0.01531978  0.09501377  0.08861752    -0.76900
C756        C  0.58366895  0.07866791  0.94913969     0.85100
O757        O  0.89383954  0.49078333  0.08982686    -0.77000
C758        C  0.91071729  0.38712748  0.95581991     0.85200
C759        C  0.90238631  0.06726820  0.95011550     0.85500
O760        O  0.86481700  0.52429447  0.97958588    -0.79400
O761        O  0.58782619  0.27327893  0.60589662    -0.76900
C762        C  0.56782468  0.40098521  0.61737898     0.84100
O763        O  0.76796238  0.43545729  0.65741097    -0.78000
O764        O  0.62781210  0.44397973  0.72998156    -0.79500
O765        O  0.51903351  0.23176869  0.71051325    -0.79300
O766        O  0.59677700  0.21365489  0.64283685    -0.77900
Zn767      Zn  0.63935298  0.34980194  0.62909686     1.55700
O768        O  0.51821847  0.30783157  0.73265139    -0.79300
Cd769      Cd  0.60093649  0.26050380  0.69074358     1.59700
Cd770      Cd  0.71129740  0.39052790  0.69979328     1.59600
O771        O  0.65036680  0.25452043  0.73366346    -0.79300
O772        O  0.63277279  0.34337283  0.68043742    -1.89800
Cd773      Cd  0.57989696  0.37133892  0.69684503     1.59900
O774        O  0.73257295  0.33622327  0.72708256    -0.79300
O775        O  0.54333046  0.38572846  0.64868627    -0.77900
C776        C  0.76414977  0.42252648  0.62354432     0.84600
C777        C  0.58775292  0.22683901  0.61094914     0.84200
O778        O  0.61640555  0.40606152  0.61232339    -0.76900
C779        C  0.50048510  0.25442361  0.73336683     0.85100
O780        O  0.72019081  0.37926158  0.61093271    -0.77000
C781        C  0.70142523  0.28913569  0.74372162     0.85200
C782        C  0.67555984  0.46376857  0.74675233     0.85500
O783        O  0.71157241  0.44832913  0.73848850    -0.79400
C784        C  0.54091701  0.11853846  0.83125620    -0.11700
C785        C  0.50488425  0.12921634  0.82196771    -0.13300
C786        C  0.54880822  0.38124564  0.87309806    -0.11700
C787        C  0.59561605  0.41843007  0.86516923    -0.13300
C788        C  0.76970792  0.39343244  0.85282734    -0.11700
C789        C  0.79026954  0.44293854  0.85922576    -0.13300
C790        C  0.91535441  0.21592705  0.53409824    -0.11700
C791        C  0.91462305  0.25739081  0.54472362    -0.13300
C792        C  0.66987273  0.26792087  0.49338432    -0.11700
C793        C  0.71081501  0.31018389  0.48249068    -0.13300
C794        C  0.71735042  0.97604581  0.49925589    -0.11700
C795        C  0.67857920  0.98126364  0.48875302    -0.13300
C796        C  0.87362447  0.37604290  0.19378861    -0.11700
C797        C  0.91040945  0.36715579  0.20344219    -0.13300
C798        C  0.87926435  0.13830948  0.15580449    -0.11700
C799        C  0.83350639  0.10137087  0.16582032    -0.13300
C800        C  0.66359454  0.12797832  0.17274341    -0.11700
C801        C  0.64747705  0.07934601  0.16580774    -0.13300
C802        C  0.56811525  0.95614840  0.10641934     0.04700
C803        C  0.58418725  0.50693734  0.12193615    -0.11500
C804        C  0.60633915  0.51702802  0.15674667     0.02200
C805        C  0.61843337  0.97843608  0.17581161    -0.10000
C806        C  0.59723214  0.92342704  0.16139193     0.04700
C807        C  0.57037286  0.91207608  0.12605411    -0.09400
H808        H  0.58161544  0.54042083  0.10740944     0.10300
H809        H  0.63434964  0.98817740  0.20344570     0.07800
H810        H  0.55290395  0.87057027  0.11369557     0.07700
C811        C  0.69627519  0.72516633  0.25433947     0.04700
C812        C  0.68208219  0.67712923  0.23368671    -0.11500
C813        C  0.66270855  0.67210202  0.19832646     0.02200
C814        C  0.65711872  0.71500997  0.18185578    -0.10000
C815        C  0.66661051  0.76256284  0.20212852     0.04700
C816        C  0.68759598  0.76835484  0.23893278    -0.09400
H817        H  0.68699451  0.64296028  0.24516673     0.10300
H818        H  0.64373971  0.71035752  0.15363397     0.07800
H819        H  0.69664294  0.80534758  0.25500202     0.07700
C820        C  0.01723448  0.66574197  0.10872209     0.04700
C821        C  0.96291610  0.63665822  0.12320126    -0.11500
C822        C  0.95198018  0.64856480  0.15788449     0.02200
C823        C  0.99544205  0.69083763  0.17897013    -0.10000
C824        C  0.55100640  0.72404916  0.16702580     0.04700
C825        C  0.55192791  0.70644686  0.12978956    -0.09400
H826        H  0.92921976  0.60164804  0.10806864     0.10300
H827        H  0.98633817  0.69650786  0.20680158     0.07800
H828        H  0.58366696  0.73561347  0.11080935     0.07700
C829        C  0.73797835  0.52573563  0.25116135     0.04700
C830        C  0.71245416  0.97612104  0.23589575    -0.11500
C831        C  0.71333210  0.96094526  0.19822862     0.02200
C832        C  0.75162297  0.00363700  0.17424309    -0.10000
C833        C  0.79266401  0.54819822  0.19539151     0.04700
C834        C  0.78416664  0.56291282  0.22992914    -0.09400
H835        H  0.68273736  0.94480212  0.25486727     0.10300
H836        H  0.75271644  0.99498563  0.14562848     0.07800
H837        H  0.81580280  0.60358292  0.24118474     0.07700
C838        C  0.94376264  0.76826360  0.24880631     0.04700
C839        C  0.90645206  0.77500389  0.22637092    -0.11500
C840        C  0.92229185  0.79782031  0.19179645     0.00700
C841        C  0.47271069  0.80786856  0.17913121    -0.10000
C842        C  0.51376015  0.80383733  0.20011214     0.04700
C843        C  0.49851864  0.78190931  0.23689040    -0.09400
H844        H  0.86451664  0.76378132  0.23647982     0.10300
H845        H  0.48161238  0.82397905  0.15162747     0.07800
H846        H  0.52959444  0.77992132  0.25435780     0.07700
C847        C  0.80575363  0.90388483  0.10475019     0.04700
C848        C  0.76076608  0.90286888  0.12543834    -0.11500
C849        C  0.74585023  0.87591436  0.16077196     0.02200
C850        C  0.77960510  0.85427994  0.17447811    -0.10000
C851        C  0.81917347  0.85056540  0.15208462     0.04700
C852        C  0.83081229  0.87369325  0.11751907    -0.09400
H853        H  0.73682339  0.92072696  0.11359044     0.10300
H854        H  0.77448821  0.83886778  0.20215907     0.07800
H855        H  0.86430011  0.87296354  0.10168706     0.07700
C856        C  0.69079804  0.86145786  0.18032669     0.03900
C857        C  0.67231024  0.90187075  0.18382795     0.03900
C858        C  0.61285989  0.88302567  0.17986711     0.03900
C859        C  0.57230375  0.82363007  0.18412828     0.03900
C860        C  0.59139029  0.78382758  0.18046578     0.03900
C861        C  0.65008028  0.80292776  0.18561294     0.03900
O862        O  0.83374165  0.62516724  0.42035374    -0.76900
C863        C  0.85948017  0.80197025  0.40879271     0.84100
O864        O  0.66817944  0.59080890  0.38725057    -0.78000
O865        O  0.77577121  0.75675826  0.29408851    -0.79500
O866        O  0.89774931  0.69148102  0.29057507    -0.79300
O867        O  0.88564545  0.62517547  0.37340475    -0.77900
Zn868      Zn  0.80727621  0.67839981  0.40086035     1.55700
O869        O  0.90771347  0.77594276  0.30518562    -0.79300
Cd870      Cd  0.84139612  0.63740629  0.33107011     1.59700
Cd871      Cd  0.71519794  0.62740463  0.33775150     1.59600
O872        O  0.78440754  0.56040257  0.30692211    -0.79300
O873        O  0.79835081  0.67369028  0.34961881    -1.89800
Cd874      Cd  0.83214616  0.75398567  0.33234960     1.59900
O875        O  0.70731312  0.56788920  0.29683474    -0.79300
O876        O  0.84460176  0.80776023  0.37671089    -0.77900
C877        C  0.68425545  0.61345111  0.41898181     0.84600
C878        C  0.87407634  0.61931728  0.40751984     0.84200
O879        O  0.86420392  0.75899196  0.41684405    -0.76900
C880        C  0.91969794  0.74487745  0.28510989     0.85100
O881        O  0.73237394  0.65800374  0.42335522    -0.77000
C882        C  0.73960517  0.54773641  0.28859440     0.85200
C883        C  0.72214365  0.72493820  0.29009955     0.85500
O884        O  0.69271324  0.68212810  0.31104044    -0.79400
C885        C  0.77973931  0.94518017  0.57880624     0.04700
C886        C  0.74432621  0.95444828  0.55603979    -0.11500
C887        C  0.79587373  0.53594721  0.55798125     0.02200
C888        C  0.83653419  0.53570349  0.53436597    -0.10000
C889        C  0.86132994  0.50181392  0.54211769     0.04700
C890        C  0.83438839  0.95942287  0.56597847    -0.09400
H891        H  0.70271364  0.94488182  0.56580956     0.10300
H892        H  0.84621141  0.55984586  0.50943981     0.07800
H893        H  0.86272164  0.95277796  0.58340565     0.07700
C894        C  0.65599207  0.58435101  0.45374010     0.04700
C895        C  0.59990562  0.56706193  0.46533783    -0.11500
C896        C  0.58335704  0.55028404  0.50259071     0.02200
C897        C  0.60177654  0.00250329  0.49994325    -0.10000
C898        C  0.67829122  0.56585927  0.51464316     0.04700
C899        C  0.69301204  0.58093262  0.47855495    -0.09400
H900        H  0.57029054  0.56881617  0.44634547     0.10300
H901        H  0.59691271  0.98528377  0.52703767     0.07800
H902        H  0.73551350  0.59205039  0.46974925     0.07700
C903        C  0.57704630  0.69389974  0.58628590     0.04700
C904        C  0.62683324  0.72721925  0.56704937    -0.11500
C905        C  0.63347611  0.71359457  0.53178902     0.02200
C906        C  0.59090631  0.66535891  0.51467071    -0.10000
C907        C  0.54234184  0.62731233  0.53431798     0.04700
C908        C  0.53520515  0.64201547  0.57074198    -0.09400
H909        H  0.66022136  0.76601564  0.57919033     0.10300
H910        H  0.59658055  0.65676763  0.48660474     0.07800
H911        H  0.49772718  0.61395515  0.58640320     0.07700
C912        C  0.85159071  0.83194187  0.43974474     0.04700
C913        C  0.89395833  0.88149262  0.45728800    -0.11500
C914        C  0.88334445  0.89701958  0.49255830     0.02200
C915        C  0.83049845  0.86159176  0.50897917    -0.10000
C916        C  0.78780705  0.81645033  0.48946602     0.04700
C917        C  0.79813943  0.80215126  0.45533638    -0.09400
H918        H  0.93392559  0.90774710  0.44353562     0.10300
H919        H  0.82185852  0.86916087  0.53653877     0.07800
H920        H  0.76472336  0.76513545  0.44153861     0.07700
C921        C  0.51687755  0.89645433  0.59397371     0.04700
C922        C  0.01504478  0.83843610  0.55153889    -0.11500
C923        C  0.00763445  0.84305596  0.51472057     0.02200
C924        C  0.99973047  0.88687343  0.50155742    -0.10000
C925        C  0.99879857  0.92628965  0.52622783     0.04700
C926        C  0.01418459  0.92513576  0.56365233    -0.09400
H927        H  0.01999432  0.80317655  0.56086157     0.10300
H928        H  0.99482493  0.89014227  0.47253997     0.07800
H929        H  0.54084219  0.98306126  0.58002188     0.07700
C930        C  0.91857575  0.62690298  0.43355911     0.04700
C931        C  0.91764944  0.58507486  0.45707432    -0.11500
C932        C  0.95415870  0.60139499  0.48835228     0.02200
C933        C  0.98789665  0.66005979  0.49592476    -0.10000
C934        C  0.98812151  0.70050656  0.47189690     0.04700
C935        C  0.95676389  0.68366423  0.44012381    -0.09400
H936        H  0.88809915  0.54071753  0.45166124     0.10300
H937        H  0.44105745  0.63653735  0.55154355     0.07800
H938        H  0.95599195  0.71581730  0.42280801     0.07700
C939        C  0.90828142  0.50415726  0.51832274     0.03900
C940        C  0.92448148  0.95269320  0.51006092     0.03900
C941        C  0.98261216  0.96888871  0.51334348     0.03900
C942        C  0.52351338  0.53096748  0.51516368     0.03900
C943        C  0.50321161  0.56990425  0.51857834     0.03900
C944        C  0.95772309  0.55760002  0.51207711     0.03900
C945        C  0.74021591  0.79538204  0.77057412     0.04700
C946        C  0.76568644  0.84888678  0.78635254    -0.11500
C947        C  0.78928026  0.85859983  0.82063257     0.02200
C948        C  0.78694984  0.81441843  0.84130551    -0.10000
C949        C  0.76758418  0.76055954  0.82553696     0.04700
C950        C  0.74313282  0.75093214  0.78941757    -0.09400
H951        H  0.76570985  0.88396678  0.77209706     0.10300
H952        H  0.80238723  0.82297777  0.86907828     0.07800
H953        H  0.72682351  0.70989650  0.77648591     0.07700
C954        C  0.86640414  0.56278853  0.92178950     0.04700
C955        C  0.87658484  0.02643414  0.89063217    -0.11500
C956        C  0.85312080  0.01858083  0.85630125     0.02200
C957        C  0.81446883  0.54297266  0.85258958    -0.10000
C958        C  0.83199760  0.59574396  0.86940963     0.04700
C959        C  0.85793103  0.60530357  0.90502343    -0.09400
H960        H  0.88787752  0.99586341  0.90094591     0.10300
H961        H  0.79616197  0.53398698  0.82556748     0.07800
H962        H  0.87074115  0.64471491  0.91933851     0.07700
C963        C  0.69314354  0.99294798  0.77747990     0.04700
C964        C  0.64333650  0.95733847  0.79614470    -0.11500
C965        C  0.63131713  0.97282242  0.82933623     0.02200
C966        C  0.67817797  0.51638399  0.85799298    -0.10000
C967        C  0.71568135  0.55971095  0.83402622     0.04700
C968        C  0.71613853  0.54521147  0.79615329    -0.09400
H969        H  0.61135205  0.91823212  0.78341204     0.10300
H970        H  0.67742202  0.52448699  0.88678025     0.07800
H971        H  0.74535069  0.57697672  0.77720000     0.07700
C972        C  0.91706616  0.86695630  0.91314715     0.04700
C973        C  0.88043151  0.81021040  0.90117409    -0.11500
C974        C  0.88088705  0.79495406  0.86352299     0.02200
C975        C  0.91877826  0.83728120  0.83925625    -0.10000
C976        C  0.95490178  0.89253905  0.85192431     0.04700
C977        C  0.95319665  0.90674690  0.88793996    -0.09400
H978        H  0.85136263  0.77881163  0.92036425     0.10300
H979        H  0.91999032  0.82776473  0.81069678     0.07800
H980        H  0.48888107  0.94091905  0.90455763     0.07700
C981        C  0.61278383  0.60794964  0.92027557     0.04700
C982        C  0.66269040  0.61455849  0.90249350    -0.11500
C983        C  0.68212957  0.64547659  0.86842671     0.02200
C984        C  0.65049540  0.66948568  0.85446672    -0.10000
C985        C  0.60561265  0.66725068  0.87425311     0.04700
C986        C  0.58597488  0.63531696  0.90548810    -0.09400
H987        H  0.68751864  0.59901757  0.91602026     0.10300
H988        H  0.66030483  0.69072504  0.82869511     0.07800
H989        H  0.54896803  0.63243909  0.91893220     0.07700
C990        C  0.98130242  0.74856687  0.77634756     0.04700
C991        C  0.53035865  0.75995579  0.80610956    -0.11500
C992        C  0.00067585  0.70631184  0.82824155     0.02200
C993        C  0.95187385  0.69803768  0.84620559    -0.10000
C994        C  0.91405926  0.71177378  0.82896434     0.04700
C995        C  0.92905998  0.73690964  0.79299990    -0.09400
H996        H  0.57322749  0.77339295  0.79679095     0.10300
H997        H  0.94375730  0.68027334  0.87323486     0.07800
H998        H  0.89991454  0.74547731  0.77795379     0.07700
C999        C  0.73891067  0.66020169  0.85057480     0.03900
C1000       C  0.78097435  0.71876003  0.84446011     0.03900
C1001       C  0.83956526  0.73607646  0.84942607     0.03900
C1002       C  0.85717574  0.69513730  0.84666164     0.03900
C1003       C  0.81578345  0.63658051  0.85231705     0.03900
C1004       C  0.75661171  0.61875655  0.84843266     0.03900
O1005       O  0.47627565  0.43682015  0.08113292    -0.76900
C1006       C  0.02552359  0.63626785  0.07780388     0.84100
O1007       O  0.83341316  0.92682824  0.04188430    -0.78000
O1008       O  0.94828302  0.59537695  0.96032642    -0.79500
O1009       O  0.56065985  0.52273352  0.95651558    -0.79300
O1010       O  0.54417044  0.95674570  0.04332179    -0.77900
Zn1011     Zn  0.97142630  0.51285962  0.06923700     1.55700
O1012       O  0.57393154  0.60511680  0.97850145    -0.79300
Cd1013     Cd  0.50462848  0.46966965  0.99829057     1.59700
Cd1014     Cd  0.88987747  0.96791642  0.99757668     1.59600
O1015       O  0.96997291  0.91040021  0.96654191    -0.79300
O1016       O  0.96746663  0.51114463  0.01765258    -1.89800
Cd1017     Cd  0.00291230  0.59168671  0.00031972     1.59900
O1018       O  0.88707532  0.90838877  0.95906242    -0.79300
O1019       O  0.01326363  0.64390063  0.04534638    -0.77900
C1020       C  0.83977866  0.94377825  0.07511711     0.84600
C1021       C  0.52865841  0.95122332  0.07683639     0.84200
O1022       O  0.02829116  0.59231575  0.08600549    -0.76900
C1023       C  0.58482969  0.57696152  0.95481988     0.85100
O1024       O  0.88562073  0.98729529  0.08539088    -0.77000
C1025       C  0.92209013  0.89187318  0.95020128     0.85200
C1026       C  0.89428498  0.56490000  0.95724483     0.85500
O1027       O  0.87033832  0.02256155  0.96876813    -0.79400
O1028       O  0.56864854  0.76748217  0.61189586    -0.76900
C1029       C  0.56025821  0.90474096  0.62129328     0.84100
O1030       O  0.76488044  0.93272394  0.64428213    -0.78000
O1031       O  0.65405333  0.96418973  0.71914040    -0.79500
O1032       O  0.52593457  0.74853362  0.72613964    -0.79300
O1033       O  0.58403378  0.71380682  0.65060599    -0.77900
Zn1034     Zn  0.62734218  0.84658484  0.62820109     1.55700
O1035       O  0.53807428  0.83471260  0.73855469    -0.79300
Cd1036     Cd  0.59908005  0.76689518  0.69651681     1.59700
Cd1037     Cd  0.71686770  0.89167442  0.69182872     1.59600
O1038       O  0.65613049  0.76238472  0.73415077    -0.79300
O1039       O  0.63415772  0.84774682  0.67934660    -1.89800
Cd1040     Cd  0.59324171  0.88649297  0.69724453     1.59900
O1041       O  0.73824953  0.83290397  0.71289614    -0.79300
O1042       O  0.54708636  0.89723989  0.65515064    -0.77900
C1043       C  0.75059666  0.91221918  0.61201322     0.84600
C1044       C  0.57099330  0.72281545  0.61867198     0.84200
O1045       O  0.60260787  0.90158793  0.60943027    -0.76900
C1046       C  0.51530507  0.78157805  0.74527668     0.85100
O1047       O  0.70308467  0.86751959  0.60612044    -0.77000
C1048       C  0.71024930  0.79277379  0.73586855     0.85200
C1049       C  0.69477044  0.97213253  0.74032452     0.85500
O1050       O  0.72436776  0.94822619  0.73438993    -0.79400
C1051       C  0.57849043  0.69831680  0.86394093    -0.11700
C1052       C  0.54971201  0.71900002  0.85729224    -0.13300
C1053       C  0.52332876  0.91521016  0.84628622    -0.11700
C1054       C  0.57350570  0.94203724  0.84091032    -0.13300
C1055       C  0.81624440  0.91568893  0.83309778    -0.11700
C1056       C  0.83524170  0.96479762  0.84014911    -0.13300
C1057       C  0.00745909  0.75788797  0.48257490    -0.11700
C1058       C  0.00992224  0.80125344  0.49226800    -0.13300
C1059       C  0.68591449  0.74985757  0.51446476    -0.11700
C1060       C  0.73278023  0.78214635  0.50415600    -0.13300
C1061       C  0.75929044  0.55721254  0.54697439    -0.11700
C1062       C  0.72070138  0.56345150  0.53667906    -0.13300
C1063       C  0.85232660  0.82694593  0.16459422    -0.11700
C1064       C  0.88487270  0.81192095  0.17373559    -0.13300
C1065       C  0.89521503  0.61539536  0.17090725    -0.11700
C1066       C  0.84669916  0.58419680  0.17921841    -0.13300
C1067       C  0.64457977  0.61965309  0.18076741    -0.11700
C1068       C  0.62780133  0.57231580  0.17080299    -0.13300
loop_ 
_geom_bond_atom_site_label_1 
_geom_bond_atom_site_label_2 
_geom_bond_distance 
_geom_bond_site_symmetry_2 
_ccdc_geom_bond_type 
C1            C6   1.419       .  A
C1          C269   1.387       .  A
C1          C220   1.477       .  S
C2            C3   1.378       .  A
C2          C268   1.390   1_545  A
C2            H7   1.088       .  S
C3          C271   1.395   1_545  A
C3          C267   1.421       .  S
C4            C5   1.419       .  A
C4          C270   1.404       .  A
C4            H8   1.073       .  S
C5            C6   1.433       .  A
C5           C57   1.526       .  S
C6            H9   1.083       .  S
C10          C11   1.392       .  A
C10          C15   1.428       .  A
C10          C82   1.494       .  S
C11          C12   1.371       .  A
C11          H16   1.087       .  S
C12          C13   1.393       .  A
C12         C266   1.423       .  S
C13          C14   1.408       .  A
C13          H17   1.070       .  S
C14          C15   1.441       .  A
C14          C60   1.518       .  S
C15          H18   1.083       .  S
C19          C20   1.388       .  A
C19         C558   1.419       .  A
C19         C205   1.474       .  S
C20          C21   1.379       .  A
C20          H25   1.088       .  S
C21          C22   1.398       .  A
C21         C264   1.425       .  S
C22         C557   1.410       .  A
C22          H26   1.080       .  S
C23          C24   1.434       .  A
C23         C556   1.418   1_455  A
C23          C59   1.526       .  S
C24         C553   1.420       .  A
C24          H27   1.083       .  S
C28          C33   1.390       .  A
C28         C296   1.423   1_545  A
C28          C81   1.486       .  S
C29          C30   1.440       .  A
C29         C295   1.424       .  A
C29          H34   1.083       .  S
C30          C31   1.414       .  A
C30          C56   1.521       .  S
C31         C299   1.401       .  A
C31          H35   1.077       .  S
C32          C33   1.380       .  A
C32         C298   1.396       .  A
C32         C265   1.423       .  S
C33          H36   1.088       .  S
C37          C38   1.390       .  A
C37         C576   1.415       .  A
C37          C79   1.477       .  S
C38          C39   1.382       .  A
C38          H43   1.088       .  S
C39         C574   1.403       .  A
C39         C263   1.434       .  S
C40          C41   1.409   1_655  A
C40         C573   1.395       .  A
C40          H44   1.071   1_655  S
C41          C42   1.441       .  A
C41          C58   1.515       .  S
C42         C571   1.424   1_455  A
C42          H45   1.083       .  S
C46          C47   1.426       .  A
C46          C51   1.393       .  A
C46         C219   1.485       .  S
C47          C48   1.435       .  A
C47          H52   1.083       .  S
C48          C49   1.412       .  A
C48          C55   1.522       .  S
C49          C50   1.401       .  A
C49          H53   1.078       .  S
C50          C51   1.383       .  A
C50         C262   1.436       .  S
C51          H54   1.088       .  S
C55          C56   1.429       .  A
C55          C60   1.423       .  A
C56          C57   1.430       .  A
C57          C58   1.434       .  A
C58          C59   1.424       .  A
C59          C60   1.426       .  A
O61          C77   1.272       .  A
O61         Zn67   2.034       .  S
C62         C111   1.481       .  S
C62          O78   1.273       .  A
C62          O75   1.282       .  A
O63          C76   1.278       .  A
O63         Cd70   2.120       .  S
O64          C82   1.280       .  A
O64         Cd73   2.132       .  S
O65          C79   1.281       .  A
O65         Cd69   2.102       .  S
O66          C77   1.278       .  A
O66         Cd69   2.110       .  S
Zn67         O78   2.021       .  S
Zn67         O80   2.007       .  S
Zn67         O72   1.871       .  S
O68          C79   1.282       .  A
O68         Cd73   2.091       .  S
Cd69         O71   2.094       .  S
Cd69         O72   1.988       .  S
Cd70         O74   2.132       .  S
Cd70         O83   2.091       .  S
Cd70         O72   1.993       .  S
O71          C81   1.281       .  A
O72         Cd73   2.018       .  S
Cd73         O75   2.135       .  S
O74          C81   1.285       .  A
C76          C93   1.479       .  S
C76          O80   1.273       .  A
C77         C129   1.476       .  S
C82          O83   1.281       .  A
C84          C85   1.390       .  A
C84          C89   1.417       .  A
C84         C242   1.487       .  S
C85         C353   1.378       .  A
C85          H90   1.088       .  S
C86          C87   1.399       .  A
C86         C352   1.378       .  A
C86         C260   1.425       .  S
C87          C88   1.410   1_545  A
C87          H91   1.076       .  S
C88         C356   1.435       .  A
C88         C138   1.521   1_565  S
C89         C355   1.433       .  A
C89          H92   1.083       .  S
C93          C94   1.414       .  A
C93          C98   1.390       .  A
C94          C95   1.429       .  A
C94          H99   1.083       .  S
C95         C363   1.405       .  A
C95         C141   1.494       .  S
C96         C362   1.420       .  A
C96         C364   1.410       .  A
C96         H100   1.077       .  S
C97          C98   1.380       .  A
C97         C363   1.397       .  A
C97         C261   1.423       .  S
C98         H101   1.087       .  S
C102        C103   1.387       .  A
C102        C107   1.416       .  A
C102        C243   1.472       .  S
C103        C104   1.379       .  A
C103        H108   1.087       .  S
C104        C105   1.396       .  A
C104        C258   1.420       .  S
C105        C106   1.406       .  A
C105        H109   1.079       .  S
C106        C107   1.429       .  A
C106        C142   1.507       .  S
C107        H110   1.081   1_455  S
C111        C112   1.418       .  A
C111        C116   1.389       .  A
C112        C113   1.433       .  A
C112        H117   1.083       .  S
C113        C114   1.402       .  A
C113        C139   1.498       .  S
C114        C115   1.392       .  A
C114        H118   1.081       .  S
C115        C116   1.379       .  A
C115        C259   1.418       .  S
C116        H119   1.084       .  S
C120        C655   1.388   1_455  A
C120        C659   1.420       .  A
C120        C228   1.479       .  S
C121        C122   1.382       .  A
C121        C654   1.392       .  A
C121        H126   1.085       .  S
C122        C123   1.394       .  A
C122        C257   1.423       .  S
C123        C124   1.403       .  A
C123        H127   1.080       .  S
C124        C125   1.435       .  A
C124        C140   1.504       .  S
C125        C654   1.421       .  A
C125        H662   1.083       .  S
H128        C659   1.083       .  S
C129        C130   1.421       .  A
C129        C134   1.390       .  A
C130        C131   1.432       .  A
C130        H135   1.083       .  S
C131        C132   1.407       .  A
C131        C143   1.513       .  S
C132        C133   1.396       .  A
C132        H670   1.079       .  S
C133        C134   1.380       .  A
C133        C256   1.424       .  S
C134        H137   1.087       .  S
H136        C666   1.079       .  S
C138        C143   1.426       .  A
C138        C406   1.424   1_545  A
C139        C140   1.424       .  A
C139        C405   1.425       .  A
C140        C942   1.414       .  A
C141        C142   1.426       .  A
C141        C941   1.415   1_445  A
C142        C677   1.419   1_455  A
C143        C676   1.425       .  A
C144        C145   1.393       .  A
C144        C149   1.431       .  A
C144        C247   1.500       .  S
C145        C146   1.374       .  A
C145        H150   1.087       .  S
C146        C147   1.401       .  A
C146        C254   1.439       .  S
C147        C148   1.419       .  A
C147        H151   1.070       .  S
C148        C149   1.444       .  A
C148        C199   1.538       .  S
C149        H152   1.083       .  S
C153        C158   1.428       .  A
C153        C421   1.391   1_545  A
C153        C225   1.496       .  S
C154        C155   1.382       .  A
C154        C420   1.390       .  A
C154        H159   1.088       .  S
C155        C423   1.406       .  A
C155        C255   1.436       .  S
C156        C157   1.417       .  A
C156        C422   1.401   1_545  A
C156        H160   1.072       .  S
C157        C158   1.443       .  A
C157        C202   1.532       .  S
C158        H161   1.083       .  S
C162        C163   1.391       .  A
C162        C434   1.426       .  A
C162        C248   1.491       .  S
C163        C164   1.376       .  A
C163        H168   1.088       .  S
C164        C432   1.395       .  A
C164        C253   1.426       .  S
C165        C166   1.413       .  A
C165        C431   1.397       .  A
C165        H169   1.073       .  S
C166        C167   1.446       .  A
C166        C203   1.532       .  S
C167        C429   1.432       .  A
C167        H170   1.083       .  S
C171        C172   1.426       .  A
C171        C176   1.391       .  A
C171        C224   1.495       .  S
C172        C173   1.443       .  A
C172        H177   1.083       .  S
C173        C174   1.415       .  A
C173        C200   1.526       .  S
C174        C175   1.400       .  A
C174        H178   1.075       .  S
C175        C176   1.372       .  A
C175        C786   1.430       .  S
C176        H713   1.088       .  S
H179        C710   1.088       .  S
C180        C181   1.432       .  A
C180        C185   1.394       .  A
C180        C222   1.506       .  S
C181        C182   1.447       .  A
C181        H186   1.083       .  S
C182        C183   1.414       .  A
C182        C198   1.532       .  S
C183        C184   1.398       .  A
C183        H187   1.073       .  S
C184        C185   1.373       .  A
C184        C250   1.432       .  S
C185        H188   1.087       .  S
C189        C194   1.431       .  A
C189        C724   1.395       .  A
C189        C779   1.503       .  S
C190        C723   1.385   1_455  A
C190        C725   1.378       .  A
C190        H195   1.089       .  S
C191        C192   1.399       .  A
C191        C724   1.373       .  A
C191        C785   1.434       .  S
C192        C193   1.415       .  A
C192        H196   1.071       .  S
C193        C194   1.444       .  A
C193        C201   1.532       .  S
C194        H197   1.083       .  S
C198        C199   1.436       .  A
C198        C203   1.436       .  A
C199        C200   1.434       .  A
C200        C201   1.435       .  A
C201        C202   1.435       .  A
C202        C203   1.434       .  A
O204        C487   1.276   1_655  A
O204       Zn744   2.015   1_565  S
C205        O221   1.275       .  A
C205        O218   1.281       .  A
O206        C219   1.284       .  A
O206       Cd213   2.136   1_554  S
O207        C225   1.281       .  A
O207       Cd216   2.145       .  S
O208        C222   1.283       .  A
O208       Cd212   2.165   1_545  S
O209        C220   1.278       .  A
O209       Cd479   2.098       .  S
Zn210       O221   2.029       .  S
Zn210       O738   2.042   1_545  S
Zn210       O490   2.037   1_545  S
Zn210       O215   1.893       .  S
O211        C222   1.278       .  A
O211       Cd750   2.082   1_556  S
Cd212       O476   2.154   1_556  S
Cd212      O1015   2.116   1_455  S
Cd212       O749   2.033   1_466  S
Cd213       O217   2.150       .  S
Cd213       O226   2.097       .  S
Cd213       O482   2.014   1_556  S
O214        C224   1.277       .  A
O214      Cd1013   2.077       .  S
O215       Cd216   2.014   1_554  S
O215       Cd746   2.000   1_544  S
O215       Cd480   1.991   1_544  S
Cd216       O218   2.114   1_556  S
Cd216       O745   2.093       .  S
O217        C224   1.282       .  A
C219        O223   1.274       .  A
C220        O471   1.275   1_455  A
O223       Zn477   2.031       .  S
C225        O493   1.278       .  A
O226        C492   1.284       .  A
O227        C243   1.271       .  A
O227       Zn233   2.030       .  S
C228        O244   1.275       .  A
C228        O241   1.277       .  A
O229        C242   1.281       .  A
O229       Cd236   2.132       .  S
O230        C248   1.282       .  A
O230       Cd239   2.089       .  S
O231        C245   1.282       .  A
O231       Cd235   2.092       .  S
O232        C243   1.279       .  A
O232       Cd235   2.109       .  S
Zn233       O244   2.040       .  S
Zn233       O246   2.007       .  S
Zn233       O238   1.891       .  S
O234        C245   1.280       .  A
O234       Cd239   2.104       .  S
Cd235       O237   2.135       .  S
Cd235       O238   2.015       .  S
Cd236       O240   2.094       .  S
Cd236       O249   2.135       .  S
Cd236       O238   2.007       .  S
O237        C247   1.280       .  A
O238       Cd239   1.993       .  S
Cd239       O241   2.104       .  S
O240        C247   1.282       .  A
C242        O246   1.276       .  A
C245        C723   1.477   1_455  S
C248        O249   1.283       .  A
C250        C251   1.202       .  T
C251        C725   1.429       .  S
C252        C709   1.427   1_455  S
C252        C253   1.199       .  T
C254        C255   1.205       .  T
C256        C257   1.196       .  T
C258        C259   1.194       .  T
C260        C261   1.197       .  T
C262        C263   1.204       .  T
C264        C265   1.197       .  T
C266        C267   1.196       .  T
C268        C273   1.422       .  A
C268        C487   1.488       .  S
C269        C270   1.378       .  A
C269        H274   1.088       .  S
C270        C534   1.436       .  S
C271        C272   1.404       .  A
C271        H275   1.081       .  S
C272        C273   1.437       .  A
C272        C324   1.504       .  S
C273        H276   1.083       .  S
C277        C278   1.389       .  A
C277        C282   1.414       .  A
C277        C349   1.474       .  S
C278        C279   1.380       .  A
C278        H283   1.088       .  S
C279        C280   1.403       .  A
C279        C533   1.433       .  S
C280        C281   1.413       .  A
C280        H284   1.078       .  S
C281        C282   1.429       .  A
C281        C327   1.505       .  S
C282        H285   1.083       .  S
C286        C287   1.389       .  A
C286        C825   1.431       .  A
C286        C472   1.506       .  S
C287        C288   1.374       .  A
C287        H292   1.089       .  S
C288        C289   1.398       .  A
C288        C531   1.425       .  S
C289        C824   1.409       .  A
C289        H293   1.080       .  S
C290        C823   1.411   1_455  A
C290        C291   1.427       .  A
C290        C326   1.509       .  S
C291        C820   1.414       .  A
C291        H294   1.081       .  S
C295        C300   1.388       .  A
C295        C348   1.490       .  S
C296        C297   1.437       .  A
C296        H301   1.083       .  S
C297        C298   1.404   1_565  A
C297        C323   1.511       .  S
C298        H302   1.075   1_545  S
C299        C300   1.371       .  A
C299        C532   1.427       .  S
C300        H303   1.088       .  S
C304        C305   1.387       .  A
C304        C843   1.431       .  A
C304        C346   1.496       .  S
C305        C306   1.377       .  A
C305        H310   1.088       .  S
C306        C841   1.395       .  A
C306        C530   1.420       .  S
C307        C840   1.395       .  A
C307        C308   1.404   1_655  A
C307        H311   1.080       .  S
C308        C309   1.432   1_455  A
C308        C325   1.499       .  S
C309        C838   1.417       .  A
C309        H312   1.083   1_655  S
C313        C314   1.417       .  A
C313        C318   1.384       .  A
C313        C486   1.469       .  S
C314        C315   1.430       .  A
C314        H319   1.082       .  S
C315        C316   1.410       .  A
C315        C322   1.512       .  S
C316        C317   1.398       .  A
C316        H320   1.078       .  S
C317        C318   1.376       .  A
C317        C529   1.421       .  S
C318        H321   1.088       .  S
C322        C323   1.429       .  A
C322        C327   1.432       .  A
C323        C324   1.418       .  A
C324        C325   1.417       .  A
C325        C326   1.421       .  A
C326        C327   1.422       .  A
O328        C344   1.273       .  A
O328       Zn334   2.018       .  S
C329        C378   1.497       .  S
C329        O345   1.278       .  A
C329        O342   1.282       .  A
O330        C343   1.278       .  A
O330       Cd337   2.097       .  S
O331        C349   1.283       .  A
O331       Cd340   2.116       .  S
O332        C346   1.284       .  A
O332       Cd336   2.132       .  S
O333        C344   1.278       .  A
O333       Cd336   2.114       .  S
Zn334       O345   2.012       .  S
Zn334       O347   2.043       .  S
Zn334       O339   1.882       .  S
O335        C346   1.286       .  A
O335       Cd340   2.120       .  S
Cd336       O338   2.088       .  S
Cd336       O339   1.998       .  S
Cd337       O341   2.121       .  S
Cd337       O350   2.074       .  S
Cd337       O339   2.011       .  S
O338        C348   1.280       .  A
O339       Cd340   2.011       .  S
Cd340       O342   2.150       .  S
O341        C348   1.279       .  A
C343        C360   1.476       .  S
C343        O347   1.274       .  A
C344        C396   1.478       .  S
C349        O350   1.279       .  A
C351        C352   1.388   1_565  A
C351        C356   1.423       .  A
C351        C509   1.481       .  S
C352        H357   1.088       .  S
C353        C354   1.406       .  A
C353        C527   1.437       .  S
C354        C355   1.416       .  A
C354        H358   1.080       .  S
C355        C405   1.512       .  S
C356        H359   1.080       .  S
C360        C361   1.418       .  A
C360        C365   1.388       .  A
C361        C362   1.432       .  A
C361        H366   1.083       .  S
C362        C408   1.525       .  S
C363        H367   1.082       .  S
C364        C365   1.380       .  A
C364        C528   1.440       .  S
C365        H368   1.088       .  S
C369        C370   1.389       .  A
C369        C374   1.421       .  A
C369        C510   1.480       .  S
C370        C371   1.379       .  A
C370        H375   1.088       .  S
C371        C372   1.399       .  A
C371        C525   1.427       .  S
C372        C373   1.409       .  A
C372        H376   1.077       .  S
C373        C374   1.433       .  A
C373        C409   1.512       .  S
C374        H377   1.083       .  S
C378        C379   1.427       .  A
C378        C383   1.391       .  A
C379        C380   1.442       .  A
C379        H384   1.083       .  S
C380        C381   1.409       .  A
C380        C406   1.512       .  S
C381        C382   1.395       .  A
C381        H385   1.076       .  S
C382        C383   1.376       .  A
C382        C526   1.427       .  S
C383        H386   1.089       .  S
C387        C922   1.390       .  A
C387        C926   1.420       .  A
C387        C495   1.489       .  S
C388        C921   1.387       .  A
C388        C389   1.378       .  A
C388        H393   1.088       .  S
C389        C390   1.399       .  A
C389        C524   1.426       .  S
C390        C391   1.411       .  A
C390        H394   1.078       .  S
C391        C392   1.432       .  A
C391        C407   1.517       .  S
C392        C921   1.420       .  A
C392        H929   1.083       .  S
H395        C926   1.083       .  S
C396        C397   1.416       .  A
C396        C401   1.388       .  A
C397        C398   1.431       .  A
C397        H402   1.083       .  S
C398        C399   1.408       .  A
C398        C410   1.504       .  S
C399        C400   1.398       .  A
C399        H937   1.077       .  S
C400        C401   1.379       .  A
C400        C523   1.425       .  S
C401        H404   1.087       .  S
H403        C933   1.079   1_455  S
C405        C410   1.420       .  A
C406        C407   1.425       .  A
C407        C675   1.430   1_565  A
C408        C674   1.426   1_455  A
C408        C409   1.429       .  A
C409        C944   1.423   1_455  A
C410        C943   1.427       .  A
C411        C412   1.386       .  A
C411        C416   1.419       .  A
C411        C514   1.479       .  S
C412        C413   1.378       .  A
C412        H417   1.088       .  S
C413        C414   1.404       .  A
C413        C521   1.431       .  S
C414        C415   1.413       .  A
C414        H418   1.079       .  S
C415        C416   1.433       .  A
C415        C466   1.513       .  S
C416        H419   1.083       .  S
C420        C425   1.420       .  A
C420        C492   1.487       .  S
C421        C422   1.373       .  A
C421        H426   1.087       .  S
C422        C522   1.434       .  S
C423        C424   1.412       .  A
C423        H427   1.080       .  S
C424        C425   1.434       .  A
C424        C469   1.514       .  S
C425        H428   1.083       .  S
C429        C430   1.392   1_545  A
C429        C515   1.502   1_545  S
C430        C431   1.373   1_565  A
C430        H435   1.087       .  S
C431        C520   1.429   1_545  S
C432        C433   1.408       .  A
C432        H436   1.076       .  S
C433        C434   1.440       .  A
C433        C470   1.517       .  S
C434        H437   1.082       .  S
C438        C439   1.420       .  A
C438        C443   1.389       .  A
C438        C491   1.481       .  S
C439        C440   1.433       .  A
C439        H444   1.082       .  S
C440        C441   1.410       .  A
C440        C467   1.515       .  S
C441        C442   1.397       .  A
C441        H445   1.076       .  S
C442        C443   1.377       .  A
C442       C1053   1.427       .  S
C443        H980   1.088       .  S
H446        C977   1.088       .  S
C447        C448   1.423       .  A
C447        C452   1.386       .  A
C447        C489   1.483       .  S
C448        C449   1.437       .  A
C448        H453   1.083       .  S
C449        C450   1.407       .  A
C449        C465   1.512       .  S
C450        C451   1.395       .  A
C450        H454   1.079       .  S
C451        C452   1.374       .  A
C451        C517   1.421       .  S
C452        H455   1.088       .  S
C456        C991   1.386       .  A
C456        C461   1.417       .  A
C456       C1046   1.474       .  S
C457        C990   1.388   1_455  A
C457        C992   1.374       .  A
C457        H462   1.088       .  S
C458        C991   1.379       .  A
C458        C459   1.398       .  A
C458       C1052   1.420       .  S
C459        C460   1.406       .  A
C459        H463   1.080       .  S
C460        C461   1.431       .  A
C460        C468   1.503       .  S
C461        H464   1.083       .  S
C465        C466   1.429       .  A
C465        C470   1.434       .  A
C466        C467   1.421       .  A
C467        C468   1.431       .  A
C468        C469   1.428       .  A
C469        C470   1.426       .  A
O471      Zn1011   2.044       .  S
C472        O488   1.279       .  A
C472        O485   1.283       .  A
O473        C486   1.277       .  A
O473       Cd480   2.093   1_554  S
O474        C492   1.286       .  A
O474       Cd483   2.132   1_556  S
O475        C489   1.281       .  A
O475       Cd479   2.117   1_556  S
O476        C487   1.286       .  A
Zn477      O1005   2.038       .  S
Zn477       O488   2.018       .  S
Zn477       O482   1.884       .  S
O478        C489   1.282       .  A
O478      Cd1017   2.095   1_556  S
Cd479       O748   2.087   1_454  S
Cd479      O1016   1.992   1_455  S
Cd480       O484   2.113       .  S
Cd480       O493   2.081   1_565  S
O481        C491   1.281       .  A
O481       Cd746   2.090       .  S
O482      Cd1013   1.996   1_554  S
O482       Cd483   2.009       .  S
Cd483      O1012   2.115   1_554  S
Cd483       O485   2.164       .  S
O484        C491   1.281       .  A
C486        O490   1.274       .  A
O494        C510   1.273       .  A
O494       Zn500   2.009       .  S
C495        O511   1.274       .  A
C495        O508   1.279       .  A
O496        C509   1.281       .  A
O496       Cd503   2.124       .  S
O497        C515   1.282       .  A
O497       Cd506   2.092       .  S
O498        C512   1.281       .  A
O498       Cd502   2.096       .  S
O499        C510   1.276       .  A
O499       Cd502   2.117       .  S
Zn500       O511   1.980       .  S
Zn500       O513   2.020       .  S
Zn500       O505   1.896       .  S
O501        C512   1.283       .  A
O501       Cd506   2.142       .  S
Cd502       O504   2.113       .  S
Cd502       O505   2.018       .  S
Cd503       O507   2.094       .  S
Cd503       O516   2.143       .  S
Cd503       O505   2.027       .  S
O504        C514   1.282       .  A
O505       Cd506   2.028       .  S
Cd506       O508   2.137       .  S
O507        C514   1.282       .  A
C509        O513   1.273       .  A
C512        C990   1.493   1_455  S
C515        O516   1.281       .  A
C517        C518   1.196       .  T
C518        C992   1.423       .  S
C519        C976   1.427   1_455  S
C519        C520   1.200       .  T
C521        C522   1.203       .  T
C523        C524   1.198       .  T
C525        C526   1.200       .  T
C527        C528   1.207       .  T
C529        C530   1.195       .  T
C531        C532   1.199       .  T
C533        C534   1.203       .  T
C535        C803   1.383       .  A
C535        C540   1.416       .  A
C535        C754   1.467       .  S
C536        C802   1.383   1_545  A
C536        C537   1.373       .  A
C536        H541   1.089       .  S
C537        C805   1.397   1_545  A
C537        C801   1.421       .  S
C538        C804   1.392       .  A
C538        C539   1.402       .  A
C538        H542   1.077       .  S
C539        C540   1.430       .  A
C539        C591   1.503       .  S
C540        H543   1.082       .  S
C544        C545   1.384       .  A
C544        C549   1.425       .  A
C544        C616   1.484       .  S
C545        C546   1.377       .  A
C545        H550   1.089       .  S
C546        C547   1.398       .  A
C546        C800   1.420       .  S
C547        C548   1.407       .  A
C547        H551   1.074       .  S
C548        C549   1.438       .  A
C548        C594   1.517       .  S
C549        H552   1.083       .  S
C553        C554   1.386   1_455  A
C553        C739   1.476       .  S
C554        C555   1.378       .  A
C554        H559   1.088       .  S
C555        C556   1.404       .  A
C555        C798   1.432       .  S
C556        H560   1.074       .  S
C557        C558   1.431       .  A
C557        C593   1.514       .  S
C558        H561   1.082       .  S
C562        C830   1.428   1_545  A
C562        C567   1.387       .  A
C562        C615   1.491       .  S
C563        C829   1.421       .  A
C563        C564   1.436       .  A
C563        H568   1.083       .  S
C564        C565   1.406       .  A
C564        C590   1.508       .  S
C565        C833   1.396       .  A
C565        H569   1.078       .  S
C566        C832   1.402       .  A
C566        C567   1.379       .  A
C566        C799   1.430       .  S
C567        H570   1.088       .  S
C571        C572   1.388       .  A
C571        C613   1.487       .  S
C572        C573   1.370       .  A
C572        H577   1.087       .  S
C573        C797   1.421       .  S
C574        C575   1.414       .  A
C574        H578   1.078       .  S
C575        C576   1.429       .  A
C575        C592   1.508       .  S
C576        H579   1.083       .  S
C580        C581   1.423       .  A
C580        C585   1.386       .  A
C580        C753   1.487       .  S
C581        C582   1.438       .  A
C581        H586   1.083       .  S
C582        C583   1.406       .  A
C582        C589   1.508       .  S
C583        C584   1.394       .  A
C583        H587   1.078       .  S
C584        C585   1.374       .  A
C584        C796   1.418       .  S
C585        H588   1.088       .  S
C589        C590   1.420       .  A
C589        C594   1.427       .  A
C590        C591   1.420       .  A
C591        C592   1.415       .  A
C592        C593   1.430       .  A
C593        C594   1.436       .  A
O595        C611   1.272       .  A
O595       Zn601   1.955       .  S
C596        C645   1.470       .  S
C596        O612   1.271       .  A
C596        O609   1.273       .  A
O597        C610   1.278       .  A
O597       Cd604   2.111       .  S
O598        C616   1.284       .  A
O598       Cd607   2.125       .  S
O599        C613   1.281       .  A
O599       Cd603   2.146       .  S
O600        C611   1.283       .  A
O600       Cd603   2.171       .  S
Zn601       O612   2.011       .  S
Zn601       O614   2.015       .  S
Zn601       O606   1.890       .  S
O602        C613   1.274       .  A
O602       Cd607   2.080       .  S
Cd603       O605   2.123       .  S
Cd603       O606   2.065       .  S
Cd604       O608   2.117       .  S
Cd604       O617   2.099       .  S
Cd604       O606   2.011       .  S
O605        C615   1.286       .  A
O606       Cd607   2.005       .  S
Cd607       O609   2.089       .  S
O608        C615   1.282       .  A
C610        C627   1.477       .  S
C610        O614   1.274       .  A
C611        C663   1.500       .  S
C616        O617   1.281       .  A
C618        C619   1.389       .  A
C618        C623   1.417       .  A
C618        C776   1.475       .  S
C619        C887   1.380       .  A
C619        H624   1.088       .  S
C620        C886   1.378       .  A
C620        C621   1.396       .  A
C620        C794   1.421       .  S
C621        C622   1.406       .  A
C621        H625   1.082       .  S
C622        C890   1.432       .  A
C622        C672   1.497       .  S
C623        C889   1.431       .  A
C623        H626   1.083       .  S
C627        C628   1.421       .  A
C627        C632   1.386       .  A
C628        C629   1.434       .  A
C628        H633   1.079       .  S
C629        C897   1.410       .  A
C629        C675   1.518       .  S
C630        C896   1.413       .  A
C630        C898   1.403       .  A
C630        H634   1.081       .  S
C631        C897   1.399   1_565  A
C631        C632   1.376   1_565  A
C631        C795   1.423       .  S
C632        H635   1.089       .  S
C636        C637   1.388       .  A
C636        C641   1.425       .  A
C636        C777   1.493       .  S
C637        C638   1.376       .  A
C637        H642   1.088       .  S
C638        C639   1.399       .  A
C638        C792   1.429       .  S
C639        C640   1.412       .  A
C639        H643   1.076       .  S
C640        C641   1.440       .  A
C640        C676   1.513       .  S
C641        H644   1.083       .  S
C645        C646   1.418       .  A
C645        C650   1.387       .  A
C646        C647   1.428       .  A
C646        H651   1.083       .  S
C647        C648   1.413       .  A
C647        C673   1.515       .  S
C648        C649   1.403       .  A
C648        H652   1.077       .  S
C649        C650   1.379       .  A
C649        C793   1.429       .  S
C650        H653   1.088       .  S
C654        C762   1.487       .  S
C655        C656   1.379       .  A
C655        H660   1.088       .  S
C656        C657   1.406       .  A
C656        C791   1.433       .  S
C657        C658   1.415       .  A
C657        H661   1.079       .  S
C658        C659   1.434   1_655  A
C658        C674   1.519       .  S
C663        C664   1.421       .  A
C663        C668   1.396       .  A
C664        C665   1.438       .  A
C664        H669   1.083       .  S
C665        C666   1.411       .  A
C665        C677   1.507       .  S
C666        C667   1.398       .  A
C667        C668   1.377       .  A
C667        C790   1.433       .  S
C668        H671   1.088       .  S
C672        C940   1.427       .  A
C672        C677   1.416   1_565  A
C673        C939   1.424       .  A
C673        C674   1.428       .  A
C675        C676   1.426       .  A
C678        C679   1.388       .  A
C678        C683   1.423       .  A
C678        C781   1.486       .  S
C679        C680   1.375       .  A
C679        H684   1.088       .  S
C680        C681   1.395       .  A
C680        C788   1.420       .  S
C681        C682   1.405       .  A
C681        H685   1.076       .  S
C682        C683   1.437       .  A
C682        C733   1.510       .  S
C683        H686   1.083       .  S
C687        C955   1.385       .  A
C687        C692   1.419       .  A
C687        C759   1.477       .  S
C688        C954   1.387       .  A
C688        C689   1.373       .  A
C688        H693   1.088       .  S
C689        C957   1.395       .  A
C689        C789   1.421       .  S
C690        C956   1.397       .  A
C690        C691   1.407       .  A
C690        H694   1.075       .  S
C691        C692   1.433       .  A
C691        C736   1.509       .  S
C692        H695   1.083       .  S
C696        C697   1.384       .  A
C696        C968   1.427       .  A
C696        C782   1.490       .  S
C697        C698   1.377       .  A
C697        H702   1.089       .  S
C698        C966   1.403       .  A
C698        C787   1.427       .  S
C699        C965   1.397   1_545  A
C699        C700   1.410       .  A
C699        H703   1.077       .  S
C700        C701   1.434       .  A
C700        C737   1.514       .  S
C701        C963   1.420   1_545  A
C701        H704   1.083       .  S
C705        C706   1.423       .  A
C705        C710   1.389       .  A
C705        C758   1.486       .  S
C706        C707   1.437       .  A
C706        H711   1.083       .  S
C707        C708   1.410       .  A
C707        C734   1.518       .  S
C708        C709   1.397       .  A
C708        H712   1.078       .  S
C709        C710   1.375       .  A
C714        C715   1.420       .  A
C714        C719   1.388       .  A
C714        C756   1.482       .  S
C715        C716   1.434       .  A
C715        H720   1.083       .  S
C716        C717   1.412       .  A
C716        C732   1.512       .  S
C717        C718   1.404       .  A
C717        H721   1.080       .  S
C718        C719   1.379       .  A
C718        C784   1.431       .  S
C719        H722   1.088       .  S
C723        C728   1.417       .  A
C724        H729   1.087       .  S
C725        C726   1.404   1_455  A
C726        C727   1.412       .  A
C726        H730   1.081       .  S
C727        C728   1.432       .  A
C727        C735   1.508       .  S
C728        H731   1.083       .  S
C732        C733   1.424       .  A
C732        C737   1.429       .  A
C733        C734   1.432       .  A
C734        C735   1.430       .  A
C735        C736   1.420       .  A
C736        C737   1.429       .  A
O738       C1021   1.277       .  A
C739        O755   1.276       .  A
C739        O752   1.275       .  A
O740        C753   1.280       .  A
O740       Cd747   2.131       .  S
O741        C759   1.281       .  A
O741       Cd750   2.103   1_656  S
O742        C756   1.282       .  A
O742       Cd746   2.117   1_545  S
O743        C754   1.275       .  A
O743      Cd1013   2.087   1_554  S
Zn744       O755   2.055   1_655  S
Zn744      O1024   2.044   1_545  S
Zn744       O749   1.899       .  S
O745        C756   1.282       .  A
Cd746      O1010   2.120   1_556  S
Cd747       O751   2.128   1_554  S
Cd747       O760   2.100   1_554  S
Cd747      O1016   2.008       .  S
O748        C758   1.281       .  A
O749      Cd1014   2.007   1_544  S
O749       Cd750   1.989   1_655  S
Cd750       O752   2.086       .  S
O751        C758   1.283       .  A
C753        O757   1.277       .  A
C754       O1005   1.272       .  A
O757      Zn1011   2.029       .  S
C759       O1027   1.282       .  A
O760       C1026   1.282       .  A
O761        C777   1.277       .  A
O761       Zn767   2.026       .  S
C762        O778   1.272       .  A
C762        O775   1.284       .  A
O763        C776   1.277       .  A
O763       Cd770   2.094       .  S
O764        C782   1.286       .  A
O764       Cd773   2.121       .  S
O765        C779   1.282       .  A
O765       Cd769   2.088       .  S
O766        C777   1.279       .  A
O766       Cd769   2.136       .  S
Zn767       O778   2.017       .  S
Zn767       O780   2.040       .  S
Zn767       O772   1.885       .  S
O768        C779   1.283       .  A
O768       Cd773   2.148       .  S
Cd769       O771   2.125       .  S
Cd769       O772   2.007       .  S
Cd770       O774   2.091       .  S
Cd770       O783   2.113       .  S
Cd770       O772   1.993       .  S
O771        C781   1.282       .  A
O772       Cd773   2.027       .  S
Cd773       O775   2.152       .  S
O774        C781   1.282       .  A
C776        O780   1.274       .  A
C782        O783   1.281       .  A
C784        C785   1.203       .  T
C786        C787   1.201       .  T
C788        C789   1.196       .  T
C790        C791   1.203       .  T
C792        C793   1.201       .  T
C794        C795   1.196       .  T
C796        C797   1.195       .  T
C798        C799   1.201       .  T
C800        C801   1.195       .  T
C802        C807   1.425       .  A
C802       C1021   1.482       .  S
C803        C804   1.375       .  A
C803        H808   1.087       .  S
C804       C1068   1.411       .  S
C805        C806   1.410       .  A
C805        H809   1.078       .  S
C806        C807   1.439       .  A
C806        C858   1.521       .  S
C807        H810   1.081       .  S
C811        C812   1.387       .  A
C811        C816   1.426       .  A
C811        C883   1.486       .  S
C812        C813   1.376       .  A
C812        H817   1.088       .  S
C813        C814   1.388       .  A
C813       C1067   1.411       .  S
C814        C815   1.399       .  A
C814        H818   1.080       .  S
C815        C816   1.439       .  A
C815        C861   1.506       .  S
C816        H819   1.083       .  S
C820        C821   1.386   1_455  A
C820       C1006   1.467       .  S
C821        C822   1.377       .  A
C821        H826   1.087       .  S
C822        C823   1.399       .  A
C822       C1065   1.426       .  S
C823        H827   1.076       .  S
C824        C825   1.447       .  A
C824        C860   1.519       .  S
C825        H828   1.082       .  S
C829        C834   1.391       .  A
C829        C882   1.485       .  S
C830        C831   1.441       .  A
C830        H835   1.082       .  S
C831        C832   1.412   1_565  A
C831        C857   1.521       .  S
C832        H836   1.076   1_545  S
C833        C834   1.378       .  A
C833       C1066   1.425       .  S
C834        H837   1.088       .  S
C838        C839   1.387       .  A
C838        C880   1.475       .  S
C839        C840   1.378       .  A
C839        H844   1.088       .  S
C840       C1064   1.418       .  S
C841        C842   1.404       .  A
C841        H845   1.075       .  S
C842        C843   1.445       .  A
C842        C859   1.520       .  S
C843        H846   1.082       .  S
C847        C848   1.428       .  A
C847        C852   1.385       .  A
C847       C1020   1.484       .  S
C848        C849   1.440       .  A
C848        H853   1.080       .  S
C849        C850   1.408       .  A
C849        C856   1.523       .  S
C850        C851   1.396       .  A
C850        H854   1.077       .  S
C851        C852   1.376       .  A
C851       C1063   1.420       .  S
C852        H855   1.088       .  S
C856        C857   1.426       .  A
C856        C861   1.428       .  A
C857        C858   1.440       .  A
C858        C859   1.439       .  A
C859        C860   1.423       .  A
C860        C861   1.424       .  A
O862        C878   1.275       .  A
O862       Zn868   2.042       .  S
C863        C912   1.472       .  S
C863        O879   1.274       .  A
C863        O876   1.276       .  A
O864        C877   1.283       .  A
O864       Cd871   2.151       .  S
O865        C883   1.280       .  A
O865       Cd874   2.105       .  S
O866        C880   1.281       .  A
O866       Cd870   2.110       .  S
O867        C878   1.276       .  A
O867       Cd870   2.087       .  S
Zn868       O879   2.039       .  S
Zn868       O881   2.002       .  S
Zn868       O873   1.884       .  S
O869        C880   1.279       .  A
O869       Cd874   2.084       .  S
Cd870       O872   2.080       .  S
Cd870       O873   1.991       .  S
Cd871       O875   2.135       .  S
Cd871       O884   2.112       .  S
Cd871       O873   2.011       .  S
O872        C882   1.278       .  A
O873       Cd874   2.003       .  S
Cd874       O876   2.095       .  S
O875        C882   1.283       .  A
C877        C894   1.491       .  S
C877        O881   1.274       .  A
C878        C930   1.471       .  S
C883        O884   1.285       .  A
C885        C886   1.389       .  A
C885        C890   1.416       .  A
C885       C1043   1.481       .  S
C886        H891   1.088       .  S
C887        C888   1.406       .  A
C887       C1061   1.437       .  S
C888        C889   1.418       .  A
C888        H892   1.076       .  S
C889        C939   1.520       .  S
C890        H893   1.083       .  S
C894        C895   1.419       .  A
C894        C899   1.393       .  A
C895        C896   1.435       .  A
C895        H900   1.083       .  S
C896        C942   1.511       .  S
C897        H901   1.075   1_545  S
C898        C899   1.380       .  A
C898       C1062   1.436       .  S
C899        H902   1.088       .  S
C903        C904   1.387       .  A
C903        C908   1.416       .  A
C903       C1044   1.476       .  S
C904        C905   1.378       .  A
C904        H909   1.086       .  S
C905        C906   1.392       .  A
C905       C1059   1.415       .  S
C906        C907   1.402       .  A
C906        H910   1.080       .  S
C907        C908   1.431       .  A
C907        C943   1.498       .  S
C908        H911   1.083       .  S
C912        C913   1.416       .  A
C912        C917   1.385       .  A
C913        C914   1.430       .  A
C913        H918   1.081       .  S
C914        C915   1.404       .  A
C914        C940   1.504       .  S
C915        C916   1.393       .  A
C915        H919   1.077       .  S
C916        C917   1.377       .  A
C916       C1060   1.416       .  S
C917        H920   1.086       .  S
C921       C1029   1.475       .  S
C922        C923   1.376       .  A
C922        H927   1.089       .  S
C923        C924   1.399   1_455  A
C923       C1058   1.429       .  S
C924        C925   1.412       .  A
C924        H928   1.078       .  S
C925        C926   1.435   1_655  A
C925        C941   1.507       .  S
C930        C931   1.417       .  A
C930        C935   1.385       .  A
C931        C932   1.432       .  A
C931        H936   1.083       .  S
C932        C933   1.416       .  A
C932        C944   1.516       .  S
C933        C934   1.406       .  A
C934        C935   1.377       .  A
C934       C1057   1.431   1_655  S
C935        H938   1.089       .  S
C939        C944   1.422       .  A
C940        C941   1.419       .  A
C942        C943   1.425       .  A
C945        C946   1.387       .  A
C945        C950   1.429       .  A
C945       C1048   1.490       .  S
C946        C947   1.372       .  A
C946        H951   1.088       .  S
C947        C948   1.395       .  A
C947       C1055   1.422       .  S
C948        C949   1.410       .  A
C948        H952   1.078       .  S
C949        C950   1.442       .  A
C949       C1000   1.523       .  S
C950        H953   1.083       .  S
C954        C959   1.427       .  A
C954       C1026   1.488       .  S
C955        C956   1.375       .  A
C955        H960   1.089   1_545  S
C956       C1056   1.420   1_545  S
C957        C958   1.409       .  A
C957        H961   1.078       .  S
C958        C959   1.441       .  A
C958       C1003   1.520       .  S
C959        H962   1.083       .  S
C963        C964   1.389       .  A
C963       C1049   1.481       .  S
C964        C965   1.376       .  A
C964        H969   1.087       .  S
C965       C1054   1.428       .  S
C966        C967   1.413       .  A
C966        H970   1.077       .  S
C967        C968   1.441       .  A
C967       C1004   1.520       .  S
C968        H971   1.082       .  S
C972        C973   1.425       .  A
C972        C977   1.387       .  A
C972       C1025   1.490       .  S
C973        C974   1.439       .  A
C973        H978   1.082       .  S
C974        C975   1.410       .  A
C974       C1001   1.515       .  S
C975        C976   1.402       .  A
C975        H979   1.080       .  S
C976        C977   1.379       .  A
C981        C982   1.434       .  A
C981        C986   1.387       .  A
C981       C1023   1.497       .  S
C982        C983   1.447       .  A
C982        H987   1.080       .  S
C983        C984   1.411       .  A
C983        C999   1.535       .  S
C984        C985   1.394       .  A
C984        H988   1.067       .  S
C985        C986   1.371       .  A
C985       C1051   1.424       .  S
C986        H989   1.088       .  S
C990        C995   1.429       .  A
C991        H996   1.088       .  S
C992        C993   1.395   1_455  A
C993        C994   1.408       .  A
C993        H997   1.073       .  S
C994        C995   1.443       .  A
C994       C1002   1.523       .  S
C995        H998   1.082       .  S
C999       C1000   1.441       .  A
C999       C1004   1.434       .  A
C1000      C1001   1.431       .  A
C1001      C1002   1.420       .  A
C1002      C1003   1.434       .  A
C1003      C1004   1.438       .  A
C1006      O1022   1.272       .  A
C1006      O1019   1.277       .  A
O1007      C1020   1.280       .  A
O1007     Cd1014   2.125   1_554  S
O1008      C1026   1.281       .  A
O1008     Cd1017   2.123   1_656  S
O1009      C1023   1.282       .  A
O1009     Cd1013   2.130       .  S
O1010      C1021   1.280       .  A
Zn1011     O1022   2.025   1_655  S
Zn1011     O1016   1.887       .  S
O1012      C1023   1.285       .  A
Cd1014     O1018   2.119       .  S
Cd1014     O1027   2.097   1_565  S
O1015      C1025   1.285       .  A
O1016     Cd1017   2.006   1_655  S
Cd1017     O1019   2.099       .  S
O1018      C1025   1.282       .  A
C1020      O1024   1.274       .  A
O1028      C1044   1.273       .  A
O1028     Zn1034   2.026       .  S
C1029      O1045   1.274       .  A
C1029      O1042   1.276       .  A
O1030      C1043   1.279       .  A
O1030     Cd1037   2.125       .  S
O1031      C1049   1.279       .  A
O1031     Cd1040   2.086       .  S
O1032      C1046   1.282       .  A
O1032     Cd1036   2.095       .  S
O1033      C1044   1.279       .  A
O1033     Cd1036   2.117       .  S
Zn1034     O1045   2.043       .  S
Zn1034     O1047   2.013       .  S
Zn1034     O1039   1.877       .  S
O1035      C1046   1.281       .  A
O1035     Cd1040   2.098       .  S
Cd1036     O1038   2.123       .  S
Cd1036     O1039   2.012       .  S
Cd1037     O1041   2.103       .  S
Cd1037     O1050   2.125       .  S
Cd1037     O1039   2.003       .  S
O1038      C1048   1.280       .  A
O1039     Cd1040   1.989       .  S
Cd1040     O1042   2.097       .  S
O1041      C1048   1.283       .  A
C1043      O1047   1.275       .  A
C1049      O1050   1.282       .  A
C1051      C1052   1.196       .  T
C1053      C1054   1.200       .  T
C1055      C1056   1.196       .  T
C1057      C1058   1.202       .  T
C1059      C1060   1.192       .  T
C1061      C1062   1.205       .  T
C1063      C1064   1.194       .  T
C1065      C1066   1.198       .  T
C1067      C1068   1.189       .  T
