geometry optimzed in LAMMPS
_audit_creation_date              2020-11-30 
_audit_creation_method            'lammps2cif' 
_symmetry_space_group_name_H-M    'P1' 
_symmetry_Int_Tables_number       1 
_symmetry_cell_setting            triclinic 
loop_ 
_symmetry_equiv_pos_as_xyz 
  x,y,z 
_cell_length_a                    32.01585233 
_cell_length_b                    31.528036711556865 
_cell_length_c                    54.59211774695771 
_cell_angle_alpha                 90.27091368714116 
_cell_angle_beta                  90.56027715390705 
_cell_angle_gamma                 90.20756818499258 
loop_ 
_atom_site_label 
_atom_site_type_symbol 
_atom_site_fract_x 
_atom_site_fract_y 
_atom_site_fract_z 
_atom_site_charge 
In1        In  0.24593335  0.73796964  0.63854755     1.36900
C2          C  0.19032486  0.79093113  0.65691931     0.77900
O3          O  0.19517796  0.68944987  0.63864970    -0.60500
O4          O  0.24602566  0.68060851  0.66310365    -0.51400
C5          C  0.26132167  0.71820967  0.59237744     0.70600
O6          O  0.22989084  0.73926481  0.59886366    -0.46300
C7          C  0.31263486  0.78284078  0.65237698     0.75300
O8          O  0.19660946  0.78783560  0.63417740    -0.58200
O9          O  0.30733206  0.74468327  0.65874953    -0.48200
O10         O  0.21274858  0.76693019  0.66991529    -0.54600
C11         C  0.21057129  0.66777803  0.65580428     0.85500
O12         O  0.28540933  0.70724029  0.60962461    -0.56500
O13         O  0.28464059  0.79695465  0.63823487    -0.59800
In14       In  0.25669637  0.74323757  0.36482903     1.36900
C15         C  0.19718148  0.78969538  0.34575615     0.77900
O16         O  0.29008936  0.80479984  0.36251236    -0.60500
O17         O  0.31895122  0.75214868  0.34560880    -0.51400
C18         C  0.27380219  0.73186055  0.41196456     0.70600
O19         O  0.24847403  0.75912813  0.40406428    -0.46300
C20         C  0.21713428  0.67465623  0.34763689     0.75300
O21         O  0.20210780  0.78646379  0.36867022    -0.58200
O22         O  0.25257806  0.68575433  0.33965742    -0.48200
O23         O  0.22329491  0.76995064  0.33294610    -0.54600
C24         C  0.32006303  0.79172021  0.34991837     0.85500
O25         O  0.29042750  0.70928106  0.39552116    -0.56500
O26         O  0.20566520  0.69531751  0.36614806    -0.59800
In27       In  0.74574571  0.23644473  0.63573034     1.36900
C28         C  0.79961347  0.17457611  0.64525679     0.77900
O29         O  0.80621223  0.27075294  0.64098568    -0.60500
O30         O  0.75416459  0.29642249  0.65918797    -0.51400
C31         C  0.72502259  0.25635864  0.58948100     0.70600
O32         O  0.74181842  0.22196962  0.59570783    -0.46300
C33         C  0.67888354  0.20119619  0.65674714     0.75300
O34         O  0.80208031  0.19701462  0.62628308    -0.58200
O35         O  0.69873519  0.23186008  0.66640061    -0.48200
O36         O  0.76872362  0.18267990  0.65851381    -0.54600
C37         C  0.79311708  0.29848314  0.65560269     0.85500
O38         O  0.71728903  0.28065764  0.60732148    -0.56500
O39         O  0.69094430  0.19173049  0.63550729    -0.59800
In40       In  0.76513375  0.26247459  0.36446224     1.36900
C41         C  0.82442312  0.20791816  0.35380467     0.77900
O42         O  0.72664535  0.20299758  0.36282425    -0.60500
O43         O  0.71129407  0.25208889  0.33790710    -0.51400
C44         C  0.74303636  0.28538836  0.40956444     0.70600
O45         O  0.77749694  0.26860605  0.40447633    -0.46300
C46         C  0.80432663  0.32990793  0.34565111     0.75300
O47         O  0.80784089  0.20864857  0.37467160    -0.58200
O48         O  0.76973191  0.31650930  0.33717908    -0.48200
O49         O  0.81024954  0.23434836  0.33872858    -0.54600
C50         C  0.70470625  0.21437391  0.34475951     0.85500
O51         O  0.71926280  0.29141256  0.39129606    -0.56500
O52         O  0.81610425  0.31131714  0.36485361    -0.59800
C53         C  0.51449840  0.99460170  0.25918359    -0.02100
In54       In  0.76366256  0.73238285  0.86051689     1.36900
C55         C  0.81622984  0.78544763  0.83950191     0.77900
O56         O  0.82032779  0.69116505  0.86024688    -0.60500
O57         O  0.76821459  0.67071213  0.83912826    -0.51400
C58         C  0.75017739  0.72376616  0.90849381     0.70600
O59         O  0.77197937  0.75291211  0.89941156    -0.46300
C60         C  0.69519314  0.77254842  0.84404462     0.75300
O61         O  0.81330209  0.78258864  0.86248617    -0.58200
O62         O  0.70174093  0.73385347  0.83906784    -0.48200
O63         O  0.79277249  0.76065151  0.82746907    -0.54600
C64         C  0.80620513  0.66480478  0.84477689     0.85500
O65         O  0.73579846  0.69741261  0.89300776    -0.56500
O66         O  0.72175446  0.78821612  0.85854050    -0.59800
In67       In  0.76737729  0.75515766  0.14040228     1.36900
C68         C  0.82218573  0.80845981  0.16023958     0.77900
O69         O  0.72131652  0.80926380  0.13934889    -0.60500
O70         O  0.71463568  0.76356351  0.16731460    -0.51400
C71         C  0.75474257  0.74013966  0.09256145     0.70600
O72         O  0.78320741  0.76395787  0.10101751    -0.46300
C73         C  0.80546024  0.68446751  0.15586942     0.75300
O74         O  0.81446545  0.80812279  0.13751396    -0.58200
O75         O  0.76717869  0.69139436  0.15990051    -0.48200
O76         O  0.80191325  0.78156121  0.17228477    -0.54600
C77         C  0.70304857  0.79884136  0.15875437     0.85500
O78         O  0.73191528  0.72384233  0.10884525    -0.56500
O79         O  0.82242229  0.71181564  0.14243575    -0.59800
In80       In  0.25870692  0.22719528  0.85796633     1.36900
C81         C  0.20166705  0.17985270  0.83579215     0.77900
O82         O  0.20703694  0.27407929  0.85742287    -0.60500
O83         O  0.25861141  0.28754484  0.83493361    -0.51400
C84         C  0.26766586  0.23600568  0.90655097     0.70600
O85         O  0.24581942  0.20762982  0.89633655    -0.46300
C86         C  0.32430687  0.18241389  0.84222694     0.75300
O87         O  0.19991836  0.18848694  0.85834116    -0.58200
O88         O  0.32121831  0.22197887  0.83870226    -0.48200
O89         O  0.23260008  0.19507253  0.82478146    -0.54600
C90         C  0.22196226  0.29763338  0.84114801     0.85500
O91         O  0.28736522  0.25924955  0.89170810    -0.56500
O92         O  0.29606812  0.16753708  0.85568131    -0.59800
In93       In  0.25868878  0.22681273  0.13958535     1.36900
C94         C  0.20530099  0.17820072  0.16300444     0.77900
O95         O  0.29647214  0.16806020  0.14188410    -0.60500
O96         O  0.32140669  0.22267668  0.15936992    -0.51400
C97         C  0.27029777  0.23594231  0.09133398     0.70600
O98         O  0.24711888  0.20793103  0.10050278    -0.46300
C99         C  0.21968747  0.29613571  0.15579938     0.75300
O100        O  0.20749432  0.17804042  0.13988721    -0.58200
O101        O  0.25775581  0.28905896  0.16080314    -0.48200
O102        O  0.23041336  0.20284814  0.17390630    -0.54600
C103        C  0.32479038  0.18321527  0.15547986     0.85500
O104        O  0.28720934  0.26052698  0.10691498    -0.56500
O105        O  0.20378239  0.26997719  0.14079066    -0.59800
C106        C  0.00633681  0.00112067  0.26439779    -0.02100
C107        C  0.01591454  0.49388749  0.24344947    -0.02100
C108        C  0.51132004  0.97595162  0.74762972    -0.02100
C109        C  0.00968159  0.47896906  0.74866795    -0.02100
C110        C  0.99475920  0.99307587  0.74493834    -0.02100
C111        C  0.04799284  0.46754219  0.22788354    -0.11600
C112        C  0.05313946  0.46757632  0.20168820     0.03800
C113        C  0.08363362  0.44186571  0.19082102    -0.12200
C114        C  0.11118149  0.41718813  0.20468809     0.18700
C115        C  0.10960836  0.42014744  0.23027502    -0.09200
C116        C  0.07883504  0.44483905  0.24140914    -0.02200
H117        H  0.08618627  0.44118329  0.17103672     0.05200
C118        C  0.13964179  0.38715391  0.19194073     0.20700
H119        H  0.07784652  0.44445238  0.26119217     0.10400
C120        C  0.18326373  0.39180995  0.19383283    -0.15500
C121        C  0.21034951  0.36319266  0.18215919     0.03400
C122        C  0.19379877  0.32970564  0.16760758    -0.10900
C123        C  0.15007630  0.32580334  0.16556277    -0.00900
C124        C  0.12326093  0.35357295  0.17768829    -0.06100
H125        H  0.19631196  0.41762782  0.20464724     0.06400
H126        H  0.13633227  0.29996045  0.15507116     0.09800
Br127      Br  0.14686509  0.38883221  0.25109468    -0.05800
Br128      Br  0.02554587  0.50288959  0.17779456    -0.02700
Br129      Br  0.26920822  0.37179538  0.18701965     0.00100
Br130      Br  0.06431242  0.34238648  0.17543185    -0.04200
C131        C  0.03436504  0.03163563  0.24852044    -0.11600
C132        C  0.06838706  0.05567863  0.25875395     0.03800
C133        C  0.09473760  0.07907573  0.24369177    -0.12200
C134        C  0.08728755  0.08192099  0.21858766     0.18700
C135        C  0.05174172  0.06253241  0.20843983    -0.09200
C136        C  0.02545945  0.03850041  0.22326094    -0.02200
H137        H  0.12149230  0.09541022  0.25166386     0.05200
C138        C  0.11640396  0.10671001  0.20357400     0.20700
H139        H  0.99759000  0.02592122  0.21459057     0.10400
C140        C  0.14447504  0.08552641  0.18821020    -0.15500
C141        C  0.17380253  0.10835535  0.17468671     0.03400
C142        C  0.17494558  0.15285306  0.17648771    -0.10900
C143        C  0.14731587  0.17389399  0.19208888    -0.00900
C144        C  0.11798850  0.15118223  0.20551402    -0.06100
H145        H  0.14403769  0.05120368  0.18712423     0.06400
H146        H  0.14833067  0.20817105  0.19364935     0.09800
Br147      Br  0.03708442  0.06943228  0.17453593    -0.05800
Br148      Br  0.08394675  0.05755848  0.29268464    -0.02700
Br149      Br  0.21371792  0.07763177  0.15558880     0.00100
Br150      Br  0.08025092  0.18215183  0.22595233    -0.04200
C151        C  0.04223095  0.45114289  0.76324022    -0.11600
C152        C  0.05489970  0.40879480  0.75679928     0.03800
C153        C  0.08579111  0.38797804  0.77061258    -0.12200
C154        C  0.10734211  0.40836782  0.78966607     0.18700
C155        C  0.09843465  0.45089285  0.79470724    -0.09200
C156        C  0.06685252  0.47164935  0.78159108    -0.02200
H157        H  0.09392973  0.35555738  0.76605724     0.05200
C158        C  0.13833481  0.38417572  0.80431730     0.20700
H159        H  0.06139775  0.50446936  0.78606568     0.10400
C160        C  0.18016954  0.38204415  0.79693669    -0.15500
C161        C  0.20902932  0.35596448  0.80926739     0.03400
C162        C  0.19599746  0.33141391  0.82949729    -0.10900
C163        C  0.15434762  0.33543387  0.83732567    -0.00900
C164        C  0.12571888  0.36103485  0.82487419    -0.06100
H165        H  0.19012514  0.39990400  0.78111244     0.06400
H166        H  0.14320202  0.31711611  0.85268715     0.09800
Br167      Br  0.12916261  0.48206047  0.81920348    -0.05800
Br168      Br  0.03716843  0.37645352  0.72847172    -0.02700
Br169      Br  0.26488580  0.35451064  0.79688092     0.00100
Br170      Br  0.06892325  0.36162241  0.83580075    -0.04200
C171        C  0.35591031  0.15416733  0.83050197    -0.11600
C172        C  0.38190271  0.16721764  0.81103596     0.03800
C173        C  0.40664570  0.13733750  0.79869691    -0.12200
C174        C  0.40598826  0.09430357  0.80514661     0.18700
C175        C  0.38128222  0.08143803  0.82491676    -0.09200
C176        C  0.35672130  0.11109201  0.83735395    -0.02200
H177        H  0.42590570  0.14758443  0.78361021     0.05200
C178        C  0.43142729  0.06328844  0.79117540     0.20700
H179        H  0.33729861  0.09998437  0.85215297     0.10400
C180        C  0.47404814  0.06001732  0.79622844    -0.15500
C181        C  0.49949167  0.03177307  0.78328925     0.03400
C182        C  0.48247473  0.00450457  0.76454613    -0.10900
C183        C  0.43897526  0.00919795  0.75958033    -0.00900
C184        C  0.41390539  0.03761183  0.77268084    -0.06100
H185        H  0.48781175  0.08005904  0.81035129     0.06400
H186        H  0.42383667  0.99267777  0.74459459     0.09800
Br187      Br  0.37975378  0.02341399  0.83531388    -0.05800
Br188      Br  0.38401997  0.22453342  0.79940941    -0.02700
Br189      Br  0.55727987  0.03386774  0.79285303     0.00100
Br190      Br  0.35590354  0.04182995  0.76384781    -0.04200
C191        C  0.16984718  0.15453919  0.82307248    -0.11600
C192        C  0.18091066  0.11901798  0.80890647     0.03800
C193        C  0.14992877  0.09621039  0.79638907    -0.12200
C194        C  0.10809230  0.10899768  0.79735244     0.18700
C195        C  0.09711317  0.14490565  0.81123734    -0.09200
C196        C  0.12798792  0.16715419  0.82425369    -0.02200
H197        H  0.15841175  0.06831834  0.78591116     0.05200
C198        C  0.07632759  0.08326776  0.78449359     0.20700
H199        H  0.11951331  0.19500398  0.83477324     0.10400
C200        C  0.04894761  0.05870136  0.79818331    -0.15500
C201        C  0.02031766  0.03103541  0.78696569     0.03400
C202        C  0.02040423  0.02584570  0.76072624    -0.10900
C203        C  0.04579804  0.05449972  0.74741937    -0.00900
C204        C  0.07398143  0.08194689  0.75893748    -0.06100
H205        H  0.04987933  0.06131925  0.81799686     0.06400
H206        H  0.04567506  0.05358332  0.72758372     0.09800
Br207      Br  0.04086924  0.16566261  0.81195973    -0.05800
Br208      Br  0.23754254  0.09947043  0.80695430    -0.02700
Br209      Br  0.98158030  0.00776690  0.81032710     0.00100
Br210      Br  0.10934192  0.11647024  0.73897009    -0.04200
C211        C  0.26951444  0.24127158  0.93367947    -0.11600
C212        C  0.23646054  0.22748732  0.94879587     0.03800
C213        C  0.24004784  0.23091507  0.97430142    -0.12200
C214        C  0.27602360  0.24786230  0.98549930     0.18700
C215        C  0.30875626  0.26234566  0.97054735    -0.09200
C216        C  0.30509397  0.25946742  0.94489286    -0.02200
H217        H  0.21465914  0.21970994  0.98557758     0.05200
C218        C  0.27938562  0.24646641  0.01272292     0.20700
H219        H  0.33081088  0.27012173  0.93371667     0.10400
C220        C  0.28126521  0.20667983  0.02406633    -0.15500
C221        C  0.27991853  0.20289082  0.04958476     0.03400
C222        C  0.27641064  0.23941924  0.06447177    -0.10900
C223        C  0.27624302  0.27944755  0.05322084    -0.00900
C224        C  0.27725430  0.28317736  0.02755726    -0.06100
H225        H  0.28318585  0.17824229  0.01291975     0.06400
H226        H  0.27343686  0.30780767  0.06434705     0.09800
Br227      Br  0.36013097  0.28345598  0.98429907    -0.05800
Br228      Br  0.18480600  0.20466094  0.93610425    -0.02700
Br229      Br  0.28448929  0.14693416  0.06306389     0.00100
Br230      Br  0.27258223  0.33870995  0.01362859    -0.04200
C231        C  0.85243279  0.83715645  0.17243271    -0.11600
C232        C  0.86576588  0.87595490  0.16219609     0.03800
C233        C  0.89210282  0.90285993  0.17582097    -0.12200
C234        C  0.90543806  0.89157932  0.19940866     0.18700
C235        C  0.89319566  0.85255683  0.20932308    -0.09200
C236        C  0.86695253  0.82576655  0.19587360    -0.02200
H237        H  0.90143647  0.93311221  0.16826068     0.05200
C238        C  0.92990387  0.92177734  0.21428199     0.20700
H239        H  0.85748365  0.79599894  0.20399348     0.10400
C240        C  0.90910684  0.94726789  0.23108020    -0.15500
C241        C  0.93076628  0.97321785  0.24779173     0.03400
C242        C  0.97575079  0.97511170  0.24722732    -0.10900
C243        C  0.99559258  0.94859874  0.22966955    -0.00900
C244        C  0.97338361  0.92247952  0.21354974    -0.06100
H245        H  0.87532492  0.94533393  0.23186118     0.06400
H246        H  0.02929257  0.94825035  0.22840251     0.09800
Br247      Br  0.91090777  0.83499966  0.24140579    -0.05800
Br248      Br  0.84739761  0.89548949  0.13064552    -0.02700
Br249      Br  0.89319358  0.99784551  0.27131082     0.00100
Br250      Br  0.00379772  0.88705434  0.19136613    -0.04200
C251        C  0.83019981  0.64913635  0.16674653    -0.11600
C252        C  0.82164562  0.63204468  0.19010375     0.03800
C253        C  0.85035147  0.60447306  0.20133453    -0.12200
C254        C  0.88772902  0.59337055  0.18976477     0.18700
C255        C  0.89531223  0.60856692  0.16603350    -0.09200
C256        C  0.86687570  0.63625072  0.15482228    -0.02200
H257        H  0.84426429  0.59291885  0.21961746     0.05200
C258        C  0.91978004  0.56852897  0.20333604     0.20700
H259        H  0.87419544  0.64884510  0.13693522     0.10400
C260        C  0.92156830  0.52458999  0.20048758    -0.15500
C261        C  0.95185571  0.50036869  0.21281051     0.03400
C262        C  0.98332900  0.52023214  0.22795013    -0.10900
C263        C  0.97879106  0.56459478  0.23166014    -0.00900
C264        C  0.94825959  0.58839335  0.21938026    -0.06100
H265        H  0.89904920  0.50891603  0.18853916     0.06400
H266        H  0.99799031  0.58155517  0.24477107     0.09800
Br267      Br  0.94522510  0.59404845  0.14879263    -0.05800
Br268      Br  0.77376160  0.64817911  0.20878647    -0.02700
Br269      Br  0.94802225  0.44055032  0.20649046     0.00100
Br270      Br  0.94594279  0.64830543  0.22550715    -0.04200
C271        C  0.96804411  0.96241102  0.76076082    -0.11600
C272        C  0.98695855  0.93090968  0.77616601     0.03800
C273        C  0.96225214  0.90218250  0.78899200    -0.12200
C274        C  0.91890971  0.90292165  0.78695235     0.18700
C275        C  0.89962180  0.93248508  0.77158004    -0.09200
C276        C  0.92383252  0.96150202  0.75869780    -0.02200
H277        H  0.97700589  0.87913881  0.80091971     0.05200
C278        C  0.89425215  0.87216222  0.80088464     0.20700
H279        H  0.90715644  0.98183165  0.74621403     0.10400
C280        C  0.87597077  0.88493458  0.82290768    -0.15500
C281        C  0.85142166  0.85674337  0.83627565     0.03400
C282        C  0.84451963  0.81525875  0.82729330    -0.10900
C283        C  0.86341201  0.80247899  0.80536751    -0.00900
C284        C  0.88863181  0.83044064  0.79233061    -0.06100
H285        H  0.88048405  0.91708267  0.82954304     0.06400
H286        H  0.85859048  0.77059869  0.79837512     0.09800
Br287      Br  0.84019418  0.93282826  0.76659948    -0.05800
Br288      Br  0.04582489  0.92620182  0.78314056    -0.02700
Br289      Br  0.82604545  0.87765839  0.86564705     0.00100
Br290      Br  0.91437094  0.81075214  0.76279790    -0.04200
C291        C  0.83371481  0.63214601  0.83331255    -0.11600
C292        C  0.82005334  0.60378937  0.81466286     0.03800
C293        C  0.84876741  0.57666120  0.80326844    -0.12200
C294        C  0.89156416  0.57801927  0.80924629     0.18700
C295        C  0.90542839  0.60728757  0.82714678    -0.09200
C296        C  0.87660903  0.63285759  0.83941757    -0.02200
H297        H  0.83783678  0.55535500  0.78893277     0.05200
C298        C  0.92146438  0.55223421  0.79464788     0.20700
H299        H  0.88842215  0.65527813  0.85291065     0.10400
C300        C  0.92352722  0.55890897  0.76941908    -0.15500
C301        C  0.95156432  0.53663035  0.75466374     0.03400
C302        C  0.97960329  0.50604523  0.76505239    -0.10900
C303        C  0.97620939  0.49921211  0.79064766    -0.00900
C304        C  0.94774871  0.52153050  0.80519002    -0.06100
H305        H  0.90349621  0.58257756  0.76110986     0.06400
H306        H  0.99450828  0.47528062  0.79976339     0.09800
Br307      Br  0.96374468  0.61773411  0.83330276    -0.05800
Br308      Br  0.76368523  0.60221548  0.80235463    -0.02700
Br309      Br  0.95119151  0.55432771  0.72100034     0.00100
Br310      Br  0.94438456  0.50680396  0.83919397    -0.04200
C311        C  0.66102152  0.79851642  0.83292274    -0.11600
C312        C  0.66012304  0.84338448  0.83547093     0.03800
C313        C  0.63054647  0.86717228  0.82256014    -0.12200
C314        C  0.60090427  0.84780482  0.80715589     0.18700
C315        C  0.60027686  0.80317787  0.80533387    -0.09200
C316        C  0.63025609  0.77897741  0.81803772    -0.02200
H317        H  0.63140158  0.90146986  0.82403752     0.05200
C318        C  0.57362957  0.87564618  0.79197635     0.20700
H319        H  0.62981908  0.74479047  0.81596867     0.10400
C320        C  0.57944746  0.87730960  0.76667957    -0.15500
C321        C  0.56002601  0.90838071  0.75219156     0.03400
C322        C  0.53483386  0.94087009  0.76308371    -0.10900
C323        C  0.52610883  0.93528710  0.78839205    -0.00900
C324        C  0.54566314  0.90420961  0.80266205    -0.06100
H325        H  0.60057996  0.85499159  0.75817944     0.06400
H326        H  0.50344770  0.95451303  0.79771252     0.09800
Br327      Br  0.55860308  0.77408164  0.78613045    -0.05800
Br328      Br  0.69905970  0.87575829  0.85512371    -0.02700
Br329      Br  0.57276974  0.90419125  0.71799725     0.00100
Br330      Br  0.53230248  0.90130122  0.83681423    -0.04200
C331        C  0.74270751  0.72149864  0.93518960    -0.11600
C332        C  0.73236086  0.75828472  0.94862151     0.03800
C333        C  0.73118997  0.75713108  0.97423107    -0.12200
C334        C  0.74041483  0.71977179  0.98696719     0.18700
C335        C  0.74895217  0.68248874  0.97359751    -0.09200
C336        C  0.74964865  0.68344483  0.94785566    -0.02200
H337        H  0.72427074  0.78588735  0.98432134     0.05200
C338        C  0.74454513  0.72176798  0.01406659     0.20700
H339        H  0.75774196  0.65498290  0.93780957     0.10400
C340        C  0.71078352  0.71071277  0.02898104    -0.15500
C341        C  0.71314988  0.71576930  0.05458828     0.03400
C342        C  0.74999063  0.73226208  0.06568879    -0.10900
C343        C  0.78378938  0.74269821  0.05051764    -0.00900
C344        C  0.78131098  0.73760526  0.02508193    -0.00700
H345        H  0.68216306  0.69897069  0.02061359     0.06400
H346        H  0.81248170  0.75515028  0.05844094     0.09800
Br347      Br  0.76255730  0.63050899  0.98984244    -0.05800
Br348      Br  0.71907599  0.81093820  0.93285462    -0.02700
Br349      Br  0.66416788  0.70188945  0.07291153     0.00100
Br350      Br  0.82892597  0.75317606  0.00596682    -0.04200
C351        C  0.48367005  0.01949682  0.24146569    -0.11600
C352        C  0.45179382  0.04710194  0.25064099     0.03800
C353        C  0.42766588  0.07170236  0.23465908    -0.12200
C354        C  0.43280752  0.06939414  0.20935147     0.18700
C355        C  0.46122886  0.04009681  0.19977925    -0.09200
C356        C  0.48495349  0.01469665  0.21556400    -0.02200
H357        H  0.40490611  0.09350705  0.24211204     0.05200
C358        C  0.40791813  0.09798951  0.19350137     0.20700
H359        H  0.50430669  0.99135444  0.20683919     0.10400
C360        C  0.41616154  0.14176547  0.19406398    -0.15500
C361        C  0.39085303  0.17039532  0.18112537     0.03400
C362        C  0.35646937  0.15517014  0.16716930    -0.10900
C363        C  0.34929415  0.11103638  0.16614571    -0.00900
C364        C  0.37418384  0.08269195  0.17933232    -0.06100
H365        H  0.44200138  0.15378654  0.20505674     0.06400
H366        H  0.32287687  0.09837198  0.15590900     0.09800
Br367      Br  0.47018416  0.03480835  0.16517920    -0.05800
Br368      Br  0.44063148  0.05675070  0.28475191    -0.02700
Br369      Br  0.40492269  0.22946605  0.18367830     0.00100
Br370      Br  0.35864417  0.02380048  0.17899028    -0.04200
C371        C  0.54367957  0.96403943  0.24389952    -0.11600
C372        C  0.54503552  0.91840490  0.24510004     0.03800
C373        C  0.56944358  0.89523441  0.22872806    -0.12200
C374        C  0.59706228  0.91479382  0.21275745     0.18700
C375        C  0.59896996  0.95928186  0.21246617    -0.09200
C376        C  0.57277355  0.98316533  0.22772662    -0.02200
H377        H  0.56925286  0.86087560  0.22966422     0.05200
C378        C  0.62582030  0.88722158  0.19850497     0.20700
H379        H  0.57465850  0.01741157  0.22666561     0.10400
C380        C  0.62179052  0.88402084  0.17290985    -0.15500
C381        C  0.64591000  0.85492493  0.15953072     0.03400
C382        C  0.67401569  0.82766639  0.17182834    -0.10900
C383        C  0.67784342  0.83098312  0.19741221    -0.00900
C384        C  0.65459371  0.86063561  0.21066104    -0.06100
H385        H  0.59933253  0.90371005  0.16336204     0.06400
H386        H  0.70012917  0.81132369  0.20713003     0.09800
Br387      Br  0.63792442  0.98881291  0.19221961    -0.05800
Br388      Br  0.52471765  0.88210781  0.27064508    -0.02700
Br389      Br  0.63766200  0.85224096  0.12471662     0.00100
Br390      Br  0.66443079  0.86477877  0.24536854    -0.04200
C391        C  0.83130794  0.36114788  0.33279485    -0.11600
C392        C  0.86475059  0.38259071  0.34476723     0.03800
C393        C  0.89427607  0.40511709  0.33106354    -0.12200
C394        C  0.89126309  0.40694811  0.30544582     0.18700
C395        C  0.85688735  0.38751342  0.29360133    -0.09200
C396        C  0.82727102  0.36505983  0.30722502    -0.02200
H397        H  0.92022526  0.42056018  0.34039807     0.05200
C398        C  0.92479378  0.42795204  0.29118889     0.20700
H399        H  0.80205834  0.34893785  0.29759021     0.10400
C400        C  0.95220627  0.40316324  0.27745961    -0.15500
C401        C  0.98229677  0.42125028  0.26200990     0.03400
C402        C  0.98639644  0.46666679  0.26047173    -0.10900
C403        C  0.95889867  0.49068047  0.27547984    -0.00900
C404        C  0.92857475  0.47208620  0.29025215    -0.06100
H405        H  0.94900506  0.36895511  0.27815797     0.06400
H406        H  0.96059452  0.52496371  0.27543410     0.09800
Br407      Br  0.84964373  0.39033881  0.25871400    -0.05800
Br408      Br  0.87191934  0.38273124  0.37973570    -0.02700
Br409      Br  0.01068883  0.37878139  0.24299972     0.00100
Br410      Br  0.89132667  0.50852645  0.30779303    -0.04200
C411        C  0.98379282  0.03183870  0.28235424    -0.11600
C412        C  0.98615357  0.03284299  0.30873080     0.03800
C413        C  0.96192619  0.06182971  0.32180796    -0.12200
C414        C  0.93639688  0.09102327  0.30993392     0.18700
C415        C  0.93624774  0.09293341  0.28433610    -0.09200
C416        C  0.96042491  0.06461243  0.27099400    -0.02200
H417        H  0.96331142  0.06210190  0.34166429     0.05200
C418        C  0.91076108  0.12012651  0.32452167     0.20700
H419        H  0.95833925  0.06625720  0.25121540     0.10400
C420        C  0.91960110  0.16362941  0.32374606    -0.15500
C421        C  0.89281978  0.19273598  0.33459640     0.03400
C422        C  0.85711453  0.17820046  0.34685146    -0.10900
C423        C  0.84994056  0.13458739  0.34930633    -0.00900
C424        C  0.87639559  0.10540182  0.33804286    -0.06100
H425        H  0.94651104  0.17500776  0.31380012     0.06400
H426        H  0.82227977  0.12332992  0.35857811     0.09800
Br427      Br  0.90000166  0.13050574  0.26656498    -0.05800
Br428      Br  0.02286692  0.00177834  0.33029206    -0.02700
Br429      Br  0.90581196  0.25205216  0.33182665     0.00100
Br430      Br  0.86218592  0.04628719  0.33969948    -0.04200
C431        C  0.54485337  0.02736311  0.27263463    -0.11600
C432        C  0.58080429  0.01520299  0.28678968     0.03800
C433        C  0.60633562  0.04598321  0.29838919    -0.12200
C434        C  0.59809910  0.08946732  0.29629372     0.18700
C435        C  0.56504712  0.10210484  0.28105746    -0.09200
C436        C  0.54049320  0.07186726  0.26886872    -0.02200
H437        H  0.63282543  0.03582529  0.30930452     0.05200
C438        C  0.62518605  0.12140354  0.30910016     0.20700
H439        H  0.51829078  0.08493383  0.25628702     0.10400
C440        C  0.64704701  0.15148107  0.29521213    -0.15500
C441        C  0.67159726  0.18304440  0.30646621     0.03400
C442        C  0.67543484  0.18459079  0.33222796    -0.10900
C443        C  0.65426067  0.15401552  0.34613049    -0.00900
C444        C  0.62908492  0.12289149  0.33486084    -0.06100
H445        H  0.64514358  0.15025560  0.27540095     0.06400
H446        H  0.65726501  0.15436137  0.36591353     0.09800
Br447      Br  0.55057822  0.16074456  0.27656374    -0.05800
Br448      Br  0.59753241  0.95768972  0.29261127    -0.02700
Br449      Br  0.70168659  0.22089000  0.28552031     0.00100
Br450      Br  0.59991877  0.08396073  0.35556987    -0.04200
C451        C  0.82262880  0.32845536  0.66812572    -0.11600
C452        C  0.81046781  0.36693493  0.67938244     0.03800
C453        C  0.84054107  0.39254790  0.69140050    -0.12200
C454        C  0.88271565  0.38037485  0.69259098     0.18700
C455        C  0.89469744  0.34206246  0.68151736    -0.09200
C456        C  0.86504435  0.31686077  0.66931913    -0.02200
H457        H  0.83095670  0.42193283  0.70000274     0.05200
C458        C  0.91383120  0.40652236  0.70636638     0.20700
H459        H  0.87527892  0.28730969  0.66117845     0.10400
C460        C  0.92042776  0.39869136  0.73122926    -0.15500
C461        C  0.95143018  0.42028151  0.74472020     0.03400
C462        C  0.97772700  0.45126616  0.73333967    -0.10900
C463        C  0.97031722  0.45837188  0.70797294    -0.00900
C464        C  0.93904164  0.43664293  0.69473933    -0.06100
H465        H  0.90167336  0.37474571  0.74017012     0.06400
H466        H  0.98752467  0.48209272  0.69808029     0.09800
Br467      Br  0.95119668  0.32213972  0.68329038    -0.05800
Br468      Br  0.75389301  0.38672231  0.67852869    -0.02700
Br469      Br  0.95708155  0.40172780  0.77807624     0.00100
Br470      Br  0.93129039  0.44961196  0.66071091    -0.04200
C471        C  0.83082861  0.14279485  0.65258853    -0.11600
C472        C  0.87405747  0.14900527  0.64901907     0.03800
C473        C  0.90276067  0.12312142  0.66133724    -0.12200
C474        C  0.88894661  0.09052893  0.67670629     0.18700
C475        C  0.84590402  0.08212671  0.67849863    -0.09200
C476        C  0.81728960  0.10840586  0.66668847    -0.02200
H477        H  0.93586144  0.12977824  0.65989905     0.05200
C478        C  0.91880194  0.06892181  0.69313647     0.20700
H479        H  0.78420721  0.10286173  0.66928250     0.10400
C480        C  0.91502616  0.07517722  0.71832283    -0.15500
C481        C  0.93909285  0.05231076  0.73506138     0.03400
C482        C  0.96818617  0.02116971  0.72679052    -0.10900
C483        C  0.97495199  0.01968904  0.70103326    -0.00900
C484        C  0.94998858  0.04202338  0.68443510    -0.06100
H485        H  0.89212298  0.09752831  0.72505728     0.06400
H486        H  0.99953855  0.00101924  0.69309961     0.09800
Br487      Br  0.82470824  0.03601549  0.69767811    -0.05800
Br488      Br  0.89597288  0.19470972  0.62983306    -0.02700
Br489      Br  0.92797746  0.06605539  0.76858869     0.00100
Br490      Br  0.95853385  0.03321502  0.65004143    -0.04200
C491        C  0.53938183  0.00998251  0.73457054    -0.11600
C492        C  0.58417836  0.01394483  0.73495535     0.03800
C493        C  0.60369452  0.04724371  0.72224814    -0.12200
C494        C  0.58075400  0.07913303  0.71054848     0.18700
C495        C  0.53715688  0.07760965  0.71155565    -0.09200
C496        C  0.51725133  0.04356256  0.72287735    -0.02200
H497        H  0.63749516  0.04908154  0.72207377     0.05200
C498        C  0.60277965  0.11353343  0.69717403     0.20700
H499        H  0.48348112  0.04316862  0.72222673     0.10400
C500        C  0.59813509  0.11634511  0.67163353    -0.15500
C501        C  0.62009819  0.14682189  0.65819429     0.03400
C502        C  0.64801755  0.17500899  0.67027829    -0.10900
C503        C  0.65081644  0.17357719  0.69600423    -0.00900
C504        C  0.62861496  0.14322590  0.70940829    -0.06100
H505        H  0.57769239  0.09425548  0.66204677     0.06400
H506        H  0.67181877  0.19491597  0.70573003     0.09800
Br507      Br  0.50316427  0.12231785  0.69852875    -0.05800
Br508      Br  0.62349245  0.98111525  0.75378743    -0.02700
Br509      Br  0.60986089  0.14865133  0.62349985     0.00100
Br510      Br  0.63457809  0.14352906  0.74441066    -0.04200
C511        C  0.71691172  0.26657847  0.56322168    -0.11600
C512        C  0.70687664  0.30774714  0.55472683     0.03800
C513        C  0.70487903  0.31579016  0.52942583    -0.12200
C514        C  0.71224573  0.28343066  0.51230336     0.18700
C515        C  0.72079724  0.24225553  0.52069622    -0.09200
C516        C  0.72282829  0.23413445  0.54580419    -0.02200
H517        H  0.69863544  0.34766269  0.52307668     0.05200
C518        C  0.71550885  0.29327681  0.48588187     0.20700
H519        H  0.73046487  0.20230187  0.55167551     0.10400
C520        C  0.75343579  0.30928713  0.47719534    -0.15500
C521        C  0.76158341  0.31019982  0.45207795     0.03400
C522        C  0.73152521  0.29476576  0.43517340    -0.10900
C523        C  0.69210333  0.28240518  0.44374133    -0.00900
C524        C  0.68399360  0.28151112  0.46895827    -0.06100
H525        H  0.77763434  0.31904487  0.49006228     0.06400
H526        H  0.66856709  0.27078482  0.43097058     0.09800
Br527      Br  0.73294444  0.19659371  0.49849457    -0.05800
Br528      Br  0.69776187  0.35495667  0.57631174    -0.02700
Br529      Br  0.81452182  0.33230414  0.44179983     0.00100
Br530      Br  0.63059089  0.26158799  0.47967774    -0.04200
C531        C  0.35193808  0.82124639  0.33984891    -0.11600
C532        C  0.35525946  0.86412005  0.34765858     0.03800
C533        C  0.38119171  0.89243733  0.33516076    -0.12200
C534        C  0.40482938  0.87916282  0.31506164     0.18700
C535        C  0.40383910  0.83575021  0.30840681    -0.09200
C536        C  0.37730844  0.80751058  0.32056841    -0.02200
H537        H  0.38244292  0.92531724  0.34098763     0.05200
C538        C  0.43046315  0.91101293  0.30165213     0.20700
H539        H  0.37596093  0.77475295  0.31453833     0.10400
C540        C  0.45977602  0.93600574  0.31441909    -0.15500
C541        C  0.48500267  0.96602178  0.30248074     0.03400
C542        C  0.48458669  0.96838020  0.27618314    -0.10900
C543        C  0.45209133  0.94509868  0.26408967    -0.00900
C544        C  0.42444359  0.91866517  0.27657933    -0.06100
H545        H  0.46225990  0.93288958  0.33414125     0.06400
H546        H  0.44827743  0.94691834  0.24440554     0.09800
Br547      Br  0.43874339  0.81255468  0.28337661    -0.05800
Br548      Br  0.32616066  0.88661713  0.37546565    -0.02700
Br549      Br  0.51273339  0.00402551  0.32502154     0.00100
Br550      Br  0.37747725  0.89581754  0.25870944    -0.04200
C551        C  0.16443114  0.81562623  0.33464598    -0.11600
C552        C  0.14537087  0.80401381  0.31217634     0.03800
C553        C  0.11782241  0.83197044  0.30077722    -0.12200
C554        C  0.10902931  0.87120784  0.31154379     0.18700
C555        C  0.12661107  0.88207451  0.33441327    -0.09200
C556        C  0.15398900  0.85411340  0.34590960    -0.02200
H557        H  0.10374202  0.82345908  0.28329497     0.05200
C558        C  0.08291437  0.90138762  0.29822385     0.20700
H559        H  0.16846998  0.86324059  0.36317846     0.10400
C560        C  0.04016081  0.90222713  0.30244152    -0.15500
C561        C  0.01489277  0.93299305  0.29156363     0.03400
C562        C  0.03298016  0.96568593  0.27687426    -0.10900
C563        C  0.07571284  0.96042472  0.27075033    -0.00900
C564        C  0.10052704  0.92958604  0.28160707    -0.06100
H565        H  0.02649198  0.87918621  0.31469682     0.06400
H566        H  0.09075186  0.97937589  0.25703298     0.09800
Br567      Br  0.11564399  0.93550152  0.34996498    -0.05800
Br568      Br  0.15461957  0.75008278  0.29663446    -0.02700
Br569      Br  0.95704331  0.92858299  0.29995014     0.00100
Br570      Br  0.15852880  0.92705173  0.27309746    -0.04200
C571        C  0.18955395  0.64287003  0.33512415    -0.11600
C572        C  0.14605359  0.64046968  0.33983157     0.03800
C573        C  0.12026263  0.61422177  0.32548330    -0.12200
C574        C  0.13633874  0.58982623  0.30629899     0.18700
C575        C  0.17964660  0.59123582  0.30186482    -0.09200
C576        C  0.20574719  0.61757822  0.31617009    -0.02200
H577        H  0.08696624  0.61374882  0.32888564     0.05200
C578        C  0.10670130  0.56512418  0.29056103     0.20700
H579        H  0.23877580  0.61885728  0.31210975     0.10400
C580        C  0.10196910  0.57546937  0.26583628    -0.15500
C581        C  0.07331522  0.55400645  0.25056460     0.03400
C582        C  0.04558912  0.52255078  0.26019101    -0.10900
C583        C  0.05160285  0.51256318  0.28542445    -0.00900
C584        C  0.08164422  0.53282338  0.30018112    -0.06100
H585        H  0.12134451  0.60027545  0.25820635     0.06400
H586        H  0.03511415  0.48668185  0.29390116     0.09800
Br587      Br  0.20463669  0.55747291  0.27666296    -0.05800
Br588      Br  0.11813038  0.67403186  0.36415658    -0.02700
Br589      Br  0.07613687  0.57010305  0.21681735     0.00100
Br590      Br  0.08981609  0.51245622  0.33296925    -0.04200
C591        C  0.34687632  0.81028816  0.66187679    -0.11600
C592        C  0.38503682  0.79403195  0.67094415     0.03800
C593        C  0.41377280  0.82127977  0.68265772    -0.12200
C594        C  0.40524029  0.86471653  0.68528322     0.18700
C595        C  0.36846994  0.88128568  0.67492593    -0.09200
C596        C  0.33975068  0.85421327  0.66334183    -0.02200
H597        H  0.44246295  0.80844190  0.69019549     0.05200
C598        C  0.43319298  0.89205611  0.70031937     0.20700
H599        H  0.31082874  0.86745746  0.65637654     0.10400
C600        C  0.46041968  0.92027713  0.68897872    -0.15500
C601        C  0.48587232  0.94838504  0.70255451     0.03400
C602        C  0.48391799  0.94900621  0.72897829    -0.10900
C603        C  0.45603327  0.91940016  0.73972906    -0.00900
C604        C  0.43103351  0.89180534  0.72587558    -0.06100
H605        H  0.46207419  0.92005550  0.66915139     0.06400
H606        H  0.45322854  0.91808121  0.75946104     0.09800
Br607      Br  0.35500977  0.94037950  0.67762337    -0.05800
Br608      Br  0.40007708  0.73546971  0.66729852    -0.02700
Br609      Br  0.52375770  0.97890481  0.68167013     0.00100
Br610      Br  0.39300110  0.85516194  0.74269672    -0.04200
C611        C  0.02404834  0.96260549  0.73002569    -0.11600
C612        C  0.00754367  0.92945956  0.71457534     0.03800
C613        C  0.03426634  0.90194429  0.70221193    -0.12200
C614        C  0.07744069  0.90565898  0.70467274     0.18700
C615        C  0.09449984  0.93761772  0.71955031    -0.09200
C616        C  0.06829208  0.96520966  0.73206437    -0.02200
H617        H  0.02122523  0.87708890  0.69064197     0.05200
C618        C  0.10439341  0.87510340  0.69209131     0.20700
H619        H  0.08374234  0.98692431  0.74445433     0.10400
C620        C  0.11291530  0.88064797  0.66721489    -0.15500
C621        C  0.14016252  0.85333757  0.65502078     0.03400
C622        C  0.15947097  0.81984323  0.66801188    -0.10900
C623        C  0.14972726  0.81397765  0.69284872    -0.00900
C624        C  0.12230133  0.84107800  0.70484128    -0.06100
H625        H  0.09880942  0.90678488  0.65737294     0.06400
H626        H  0.16354596  0.78818629  0.70311326     0.09800
Br627      Br  0.15378640  0.94421850  0.72384140    -0.05800
Br628      Br  0.94914412  0.91939523  0.70804375    -0.02700
Br629      Br  0.15025567  0.86497356  0.62109275     0.00100
Br630      Br  0.11004994  0.83044492  0.73862482    -0.04200
C631        C  0.03941228  0.50777364  0.73308867    -0.11600
C632        C  0.05232803  0.55030386  0.73938774     0.03800
C633        C  0.08182603  0.57151069  0.72509086    -0.12200
C634        C  0.10144015  0.55162267  0.70548189     0.18700
C635        C  0.09192381  0.50924292  0.70019374    -0.09200
C636        C  0.06179374  0.48796490  0.71387383    -0.02200
H637        H  0.09049635  0.60387203  0.72970084     0.05200
C638        C  0.13199754  0.57603715  0.69104737     0.20700
H639        H  0.05600109  0.45519769  0.70933234     0.10400
C640        C  0.17128194  0.58561443  0.70125912    -0.15500
C641        C  0.19887061  0.61327822  0.68947061     0.03400
C642        C  0.18684534  0.63239029  0.66707947    -0.10900
C643        C  0.14817342  0.62083464  0.65641556    -0.00900
C644        C  0.12087190  0.59312017  0.66820191    -0.06100
H645        H  0.18000436  0.57241568  0.71886285     0.06400
H646        H  0.13817180  0.63477658  0.63924620     0.09800
Br647      Br  0.12065700  0.47861259  0.67506310    -0.05800
Br648      Br  0.03705375  0.58280909  0.76796064    -0.02700
Br649      Br  0.25113631  0.62479964  0.70578035     0.00100
Br650      Br  0.06735088  0.58198609  0.65331726    -0.04200
C651        C  0.26967812  0.70883154  0.56649434    -0.11600
C652        C  0.23703063  0.69769160  0.55018246     0.03800
C653        C  0.24449714  0.69598252  0.52505640    -0.12200
C654        C  0.28403229  0.70573102  0.51583607     0.18700
C655        C  0.31721552  0.71469148  0.53214764    -0.09200
C656        C  0.31001992  0.71550412  0.55739766    -0.02200
H657        H  0.21886365  0.68903187  0.51254960     0.05200
C658        C  0.28787460  0.71235699  0.48927254     0.20700
H659        H  0.33533222  0.72409192  0.56979063     0.10400
C660        C  0.28151192  0.75329954  0.48024072    -0.15500
C661        C  0.27841755  0.76060144  0.45509942     0.03400
C662        C  0.28197612  0.72634921  0.43844025    -0.10900
C663        C  0.29055974  0.68563778  0.44754666    -0.00900
C664        C  0.29304659  0.67841090  0.47282346    -0.06100
H665        H  0.27754788  0.77953025  0.49289892     0.06400
H666        H  0.29339886  0.65904401  0.43504935     0.09800
Br667      Br  0.37184084  0.72886646  0.52058630    -0.05800
Br668      Br  0.18157691  0.68509880  0.56117829    -0.02700
Br669      Br  0.26956215  0.81819498  0.44495606     0.00100
Br670      Br  0.30173448  0.62169124  0.48422617    -0.04200
loop_ 
_geom_bond_atom_site_label_1 
_geom_bond_atom_site_label_2 
_geom_bond_distance 
_geom_bond_site_symmetry_2 
_ccdc_geom_bond_type 
In1           O3   2.228       .  S
In1           O4   2.256       .  S
In1          O12   2.250       .  S
In1           O6   2.222       .  S
In1           O8   2.244       .  S
In1           O9   2.253       .  S
In1          O10   2.219       .  S
In1          O13   2.231       .  S
C2            O8   1.263       .  A
C2           O10   1.261       .  A
C2          C622   1.479       .  S
O3           C11   1.259       .  A
O4           C11   1.264       .  A
C5           O12   1.262       .  A
C5            O6   1.260       .  A
C5          C651   1.470       .  S
C7            O9   1.265       .  A
C7           O13   1.261       .  A
C7          C591   1.482       .  S
C11         C642   1.487       .  S
In14         O16   2.217       .  S
In14         O17   2.279       .  S
In14         O25   2.260       .  S
In14         O19   2.216       .  S
In14         O21   2.231       .  S
In14         O22   2.272       .  S
In14         O23   2.206       .  S
In14         O26   2.223       .  S
C15          O21   1.264       .  A
C15          O23   1.260       .  A
C15         C551   1.461       .  S
O16          C24   1.256       .  A
O17          C24   1.269       .  A
C18          O25   1.266       .  A
C18          O19   1.259       .  A
C18         C662   1.478       .  S
C20          O22   1.268       .  A
C20          O26   1.258       .  A
C20         C571   1.492       .  S
C24         C531   1.490       .  S
In27         O29   2.230       .  S
In27         O30   2.292       .  S
In27         O38   2.276       .  S
In27         O32   2.232       .  S
In27         O34   2.257       .  S
In27         O35   2.267       .  S
In27         O36   2.230       .  S
In27         O39   2.247       .  S
C28          O34   1.260       .  A
C28          O36   1.257       .  A
C28         C471   1.472       .  S
O29          C37   1.257       .  A
O30          C37   1.266       .  A
C31          O38   1.263       .  A
C31          O32   1.259       .  A
C31         C511   1.491       .  S
C33          O35   1.265       .  A
C33          O39   1.261       .  A
C33         C502   1.489       .  S
C37         C451   1.493       .  S
In40         O42   2.241       .  S
In40         O43   2.263       .  S
In40         O51   2.275       .  S
In40         O45   2.224       .  S
In40         O47   2.252       .  S
In40         O48   2.274       .  S
In40         O49   2.210       .  S
In40         O52   2.240       .  S
C41          O47   1.262       .  A
C41          O49   1.257       .  A
C41         C422   1.459       .  S
O42          C50   1.259       .  A
O43          C50   1.266       .  A
C44          O51   1.264       .  A
C44          O45   1.258       .  A
C44         C522   1.478       .  S
C46          O48   1.266       .  A
C46          O52   1.259       .  A
C46         C391   1.490       .  S
C50         C442   1.484       .  S
C53         C351   1.587   1_565  S
C53         C371   1.585       .  S
C53         C431   1.588   1_565  S
C53         C542   1.575       .  S
In54         O56   2.236       .  S
In54         O57   2.269       .  S
In54         O65   2.280       .  S
In54         O59   2.230       .  S
In54         O61   2.240       .  S
In54         O62   2.293       .  S
In54         O63   2.227       .  S
In54         O66   2.220       .  S
C55          O61   1.263       .  A
C55          O63   1.260       .  A
C55         C282   1.470       .  S
O56          C64   1.262       .  A
O57          C64   1.266       .  A
C58          O65   1.265       .  A
C58          O59   1.259       .  A
C58         C331   1.481       .  S
C60          O62   1.267       .  A
C60          O66   1.254       .  A
C60         C311   1.495       .  S
C64         C291   1.496       .  S
In67         O69   2.260       .  S
In67         O70   2.265       .  S
In67         O78   2.274       .  S
In67         O72   2.232       .  S
In67         O74   2.253       .  S
In67         O75   2.279       .  S
In67         O76   2.211       .  S
In67         O79   2.236       .  S
C68          O74   1.263       .  A
C68          O76   1.258       .  A
C68         C231   1.475       .  S
O69          C77   1.260       .  A
O70          C77   1.264       .  A
C71          O78   1.266       .  A
C71          O72   1.261       .  A
C71         C342   1.493       .  S
C73          O75   1.267       .  A
C73          O79   1.260       .  A
C73         C251   1.491       .  S
C77         C382   1.487       .  S
In80         O82   2.223       .  S
In80         O83   2.286       .  S
In80         O91   2.280       .  S
In80         O85   2.228       .  S
In80         O87   2.240       .  S
In80         O88   2.276       .  S
In80         O89   2.226       .  S
In80         O92   2.236       .  S
C81          O87   1.261       .  A
C81          O89   1.258       .  A
C81         C191   1.460       .  S
O82          C90   1.257       .  A
O83          C90   1.266       .  A
C84          O91   1.266       .  A
C84          O85   1.258       .  A
C84         C211   1.490       .  S
C86          O88   1.267       .  A
C86          O92   1.261       .  A
C86         C171   1.497       .  S
C90         C162   1.494       .  S
In93         O95   2.219       .  S
In93         O96   2.275       .  S
In93        O104   2.278       .  S
In93         O98   2.239       .  S
In93        O100   2.244       .  S
In93        O101   2.275       .  S
In93        O102   2.223       .  S
In93        O105   2.228       .  S
C94         O100   1.265       .  A
C94         O102   1.259       .  A
C94         C142   1.462       .  S
O95         C103   1.258       .  A
O96         C103   1.266       .  A
C97         O104   1.265       .  A
C97          O98   1.260       .  A
C97         C222   1.486       .  S
C99         O101   1.267       .  A
C99         O105   1.262       .  A
C99         C122   1.494       .  S
C103        C362   1.489       .  S
C106        C131   1.581       .  S
C106        C242   1.574   1_445  S
C106        C411   1.559   1_455  S
C106        C562   1.563   1_545  S
C107        C111   1.576       .  S
C107        C262   1.578   1_455  S
C107        C402   1.585   1_455  S
C107        C582   1.589       .  S
C108        C182   1.591   1_565  S
C108        C322   1.582       .  S
C108        C491   1.575   1_565  S
C108        C602   1.580       .  S
C109        C151   1.577       .  S
C109        C302   1.572   1_455  S
C109        C462   1.575   1_455  S
C109        C631   1.572       .  S
C110        C202   1.567   1_665  S
C110        C271   1.558       .  S
C110        C482   1.577   1_565  S
C110        C611   1.574   1_655  S
C111        C112   1.441       .  A
C111        C116   1.424       .  A
C112        C113   1.405       .  A
C112       Br128   1.929       .  S
C113        C114   1.398       .  A
C113        H117   1.084       .  S
C114        C118   1.491       .  S
C114        C115   1.401       .  A
C115        C116   1.400       .  A
C115       Br127   1.919       .  S
C116        H119   1.081       .  S
C118        C120   1.407       .  A
C118        C124   1.408       .  A
C120        C121   1.408       .  A
C120        H125   1.083       .  S
C121        C122   1.416       .  A
C121       Br129   1.919       .  S
C122        C123   1.408       .  A
C123        C124   1.397       .  A
C123        H126   1.083       .  S
C124       Br130   1.921       .  S
C131        C132   1.432       .  A
C131        C136   1.423       .  A
C132        C133   1.395       .  A
C132       Br148   1.914       .  S
C133        C134   1.392       .  A
C133        H137   1.084       .  S
C134        C138   1.472       .  S
C134        C135   1.398       .  A
C135        C136   1.397       .  A
C135       Br147   1.919       .  S
C136        H139   1.079   1_455  S
C138        C140   1.404       .  A
C138        C144   1.406       .  A
C140        C141   1.399       .  A
C140        H145   1.084       .  S
C141        C142   1.406       .  A
C141       Br149   1.919       .  S
C142        C143   1.401       .  A
C143        C144   1.395       .  A
C143        H146   1.084       .  S
C144       Br150   1.919       .  S
C151        C152   1.440       .  A
C151        C156   1.420       .  A
C152        C153   1.404       .  A
C152       Br168   1.928       .  S
C153        C154   1.396       .  A
C153        H157   1.084       .  S
C154        C158   1.484       .  S
C154        C155   1.398       .  A
C155        C156   1.399       .  A
C155       Br167   1.917       .  S
C156        H159   1.077       .  S
C158        C160   1.404       .  A
C158        C164   1.403       .  A
C160        C161   1.408       .  A
C160        H165   1.083       .  S
C161        C162   1.417       .  A
C161       Br169   1.919       .  S
C162        C163   1.410       .  A
C163        C164   1.397       .  A
C163        H166   1.083       .  S
C164       Br170   1.919       .  S
C171        C172   1.418       .  A
C171        C176   1.411       .  A
C172        C173   1.407       .  A
C172       Br188   1.919       .  S
C173        C174   1.403       .  A
C173        H177   1.083       .  S
C174        C178   1.487       .  S
C174        C175   1.405       .  A
C175        C176   1.401       .  A
C175       Br187   1.919       .  S
C176        H179   1.083       .  S
C178        C180   1.394       .  A
C178        C184   1.403       .  A
C180        C181   1.402       .  A
C180        H185   1.084       .  S
C181        C182   1.435       .  A
C181       Br189   1.918       .  S
C182        C183   1.425       .  A
C183        C184   1.403       .  A
C183        H186   1.078   1_545  S
C184       Br190   1.919       .  S
C191        C192   1.406       .  A
C191        C196   1.401       .  A
C192        C193   1.395       .  A
C192       Br208   1.921       .  S
C193        C194   1.402       .  A
C193        H197   1.084       .  S
C194        C198   1.470       .  S
C194        C195   1.407       .  A
C195        C196   1.397       .  A
C195       Br207   1.919       .  S
C196        H199   1.084       .  S
C198        C200   1.393       .  A
C198        C204   1.397       .  A
C200        C201   1.398       .  A
C200        H205   1.085       .  S
C201        C202   1.441       .  A
C201       Br209   1.933   1_455  S
C202        C203   1.420       .  A
C203        C204   1.392       .  A
C203        H206   1.083       .  S
C204       Br210   1.919       .  S
C211        C212   1.417       .  A
C211        C216   1.407       .  A
C212        C213   1.400       .  A
C212       Br228   1.923       .  S
C213        C214   1.402       .  A
C213        H217   1.084       .  S
C214        C218   1.490   1_556  S
C214        C215   1.411       .  A
C215        C216   1.407       .  A
C215       Br227   1.917       .  S
C216        H219   1.083       .  S
C218        C220   1.403       .  A
C218        C224   1.412       .  A
C220        C221   1.400       .  A
C220        H225   1.083       .  S
C221        C222   1.412       .  A
C221       Br229   1.920       .  S
C222        C223   1.406       .  A
C223        C224   1.407       .  A
C223        H226   1.083       .  S
C224       Br230   1.918       .  S
C231        C232   1.414       .  A
C231        C236   1.406       .  A
C232        C233   1.400       .  A
C232       Br248   1.920       .  S
C233        C234   1.401       .  A
C233        H237   1.083       .  S
C234        C238   1.468       .  S
C234        C235   1.403       .  A
C235        C236   1.391       .  A
C235       Br247   1.920       .  S
C236        H239   1.083       .  S
C238        C240   1.392       .  A
C238        C244   1.393       .  A
C240        C241   1.400       .  A
C240        H245   1.084       .  S
C241        C242   1.442       .  A
C241       Br249   1.930       .  S
C242        C243   1.425       .  A
C243        C244   1.391       .  A
C243        H246   1.082   1_655  S
C244       Br250   1.918   1_655  S
C251        C252   1.415       .  A
C251        C256   1.408       .  A
C252        C253   1.406       .  A
C252       Br268   1.918       .  S
C253        C254   1.403       .  A
C253        H257   1.083       .  S
C254        C258   1.487       .  S
C254        C255   1.406       .  A
C255        C256   1.402       .  A
C255       Br267   1.918       .  S
C256        H259   1.083       .  S
C258        C260   1.395       .  A
C258        C264   1.402       .  A
C260        C261   1.405       .  A
C260        H265   1.084       .  S
C261        C262   1.437       .  A
C261       Br269   1.919       .  S
C262        C263   1.420       .  A
C263        C264   1.402       .  A
C263        H266   1.078       .  S
C264       Br270   1.919       .  S
C271        C272   1.436       .  A
C271        C276   1.419       .  A
C272        C273   1.396       .  A
C272       Br288   1.925   1_655  S
C273        C274   1.391       .  A
C273        H277   1.084       .  S
C274        C278   1.468       .  S
C274        C275   1.398       .  A
C275        C276   1.394       .  A
C275       Br287   1.919       .  S
C276        H279   1.077       .  S
C278        C280   1.400       .  A
C278        C284   1.404       .  A
C280        C281   1.397       .  A
C280        H285   1.083       .  S
C281        C282   1.411       .  A
C281       Br289   1.920       .  S
C282        C283   1.404       .  A
C283        C284   1.396       .  A
C283        H286   1.083       .  S
C284       Br290   1.919       .  S
C291        C292   1.417       .  A
C291        C296   1.410       .  A
C292        C293   1.406       .  A
C292       Br308   1.920       .  S
C293        C294   1.406       .  A
C293        H297   1.084       .  S
C294        C298   1.492       .  S
C294        C295   1.408       .  A
C295        C296   1.401       .  A
C295       Br307   1.921       .  S
C296        H299   1.083       .  S
C298        C300   1.396       .  A
C298        C304   1.406       .  A
C300        C301   1.400       .  A
C300        H305   1.084       .  S
C301        C302   1.435       .  A
C301       Br309   1.923       .  S
C302        C303   1.420       .  A
C303        C304   1.403       .  A
C303        H306   1.078       .  S
C304       Br310   1.920       .  S
C311        C312   1.421       .  A
C311        C316   1.409       .  A
C312        C313   1.397       .  A
C312       Br328   1.924       .  S
C313        C314   1.399       .  A
C313        H317   1.084       .  S
C314        C318   1.489       .  S
C314        C315   1.410       .  A
C315        C316   1.408       .  A
C315       Br327   1.917       .  S
C316        H319   1.083       .  S
C318        C320   1.397       .  A
C318        C324   1.401       .  A
C320        C321   1.405       .  A
C320        H325   1.084       .  S
C321        C322   1.436       .  A
C321       Br329   1.919       .  S
C322        C323   1.424       .  A
C323        C324   1.400       .  A
C323        H326   1.077       .  S
C324       Br330   1.919       .  S
C331        C332   1.411       .  A
C331        C336   1.405       .  A
C332        C333   1.400       .  A
C332       Br348   1.921       .  S
C333        C334   1.402       .  A
C333        H337   1.083       .  S
C334        C338   1.485   1_556  S
C334        C335   1.410       .  A
C335        C336   1.406       .  A
C335       Br347   1.917       .  S
C336        H339   1.083       .  S
C338        C340   1.404       .  A
C338        C344   1.406       .  A
C340        C341   1.408       .  A
C340        H345   1.083       .  S
C341        C342   1.417       .  A
C341       Br349   1.919       .  S
C342        C343   1.408       .  A
C343        C344   1.399       .  A
C343        H346   1.083       .  S
C344       Br350   1.919       .  S
C351        C352   1.436       .  A
C351        C356   1.422       .  A
C352        C353   1.399       .  A
C352       Br368   1.923       .  S
C353        C354   1.395       .  A
C353        H357   1.084       .  S
C354        C358   1.482       .  S
C354        C355   1.402       .  A
C355        C356   1.400       .  A
C355       Br367   1.920       .  S
C356        H359   1.076   1_545  S
C358        C360   1.404       .  A
C358        C364   1.405       .  A
C360        C361   1.404       .  A
C360        H365   1.084       .  S
C361        C362   1.414       .  A
C361       Br369   1.919       .  S
C362        C363   1.410       .  A
C363        C364   1.397       .  A
C363        H366   1.083       .  S
C364       Br370   1.920       .  S
C371        C372   1.441       .  A
C371        C376   1.424       .  A
C372        C373   1.398       .  A
C372       Br388   1.925       .  S
C373        C374   1.392       .  A
C373        H377   1.085       .  S
C374        C378   1.491       .  S
C374        C375   1.404       .  A
C375        C376   1.406       .  A
C375       Br387   1.916       .  S
C376        H379   1.083   1_565  S
C378        C380   1.405       .  A
C378        C384   1.411       .  A
C380        C381   1.408       .  A
C380        H385   1.083       .  S
C381        C382   1.414       .  A
C381       Br389   1.918       .  S
C382        C383   1.404       .  A
C383        C384   1.400       .  A
C383        H386   1.083       .  S
C384       Br390   1.921       .  S
C391        C392   1.417       .  A
C391        C396   1.407       .  A
C392        C393   1.404       .  A
C392       Br408   1.921       .  S
C393        C394   1.402       .  A
C393        H397   1.083       .  S
C394        C398   1.488       .  S
C394        C395   1.408       .  A
C395        C396   1.403       .  A
C395       Br407   1.919       .  S
C396        H399   1.083       .  S
C398        C400   1.398       .  A
C398        C404   1.398       .  A
C400        C401   1.408       .  A
C400        H405   1.084       .  S
C401        C402   1.440       .  A
C401       Br409   1.926   1_655  S
C402        C403   1.426       .  A
C403        C404   1.397       .  A
C403        H406   1.082       .  S
C404       Br410   1.919       .  S
C411        C412   1.441       .  A
C411        C416   1.419       .  A
C412        C413   1.399       .  A
C412       Br428   1.928   1_655  S
C413        C414   1.391       .  A
C413        H417   1.084       .  S
C414        C418   1.470       .  S
C414        C415   1.399       .  A
C415        C416   1.392       .  A
C415       Br427   1.921       .  S
C416        H419   1.083       .  S
C418        C420   1.400       .  A
C418        C424   1.409       .  A
C420        C421   1.392       .  A
C420        H425   1.084       .  S
C421        C422   1.407       .  A
C421       Br429   1.921       .  S
C422        C423   1.401       .  A
C423        C424   1.397       .  A
C423        H426   1.084       .  S
C424       Br430   1.920       .  S
C431        C432   1.434       .  A
C431        C436   1.426       .  A
C432        C433   1.410       .  A
C432       Br448   1.920   1_545  S
C433        C434   1.402       .  A
C433        H437   1.082       .  S
C434        C438   1.493       .  S
C434        C435   1.400       .  A
C435        C436   1.396       .  A
C435       Br447   1.924       .  S
C436        H439   1.069       .  S
C438        C440   1.406       .  A
C438        C444   1.411       .  A
C440        C441   1.402       .  A
C440        H445   1.083       .  S
C441        C442   1.411       .  A
C441       Br449   1.920       .  S
C442        C443   1.406       .  A
C443        C444   1.404       .  A
C443        H446   1.083       .  S
C444       Br450   1.919       .  S
C451        C452   1.415       .  A
C451        C456   1.409       .  A
C452        C453   1.409       .  A
C452       Br468   1.918       .  S
C453        C454   1.406       .  A
C453        H457   1.083       .  S
C454        C458   1.487       .  S
C454        C455   1.405       .  A
C455        C456   1.398       .  A
C455       Br467   1.919       .  S
C456        H459   1.084       .  S
C458        C460   1.395       .  A
C458        C464   1.402       .  A
C460        C461   1.403       .  A
C460        H465   1.084       .  S
C461        C462   1.435       .  A
C461       Br469   1.922       .  S
C462        C463   1.422       .  A
C463        C464   1.404       .  A
C463        H466   1.078       .  S
C464       Br470   1.918       .  S
C471        C472   1.413       .  A
C471        C476   1.402       .  A
C472        C473   1.400       .  A
C472       Br488   1.920       .  S
C473        C474   1.403       .  A
C473        H477   1.083       .  S
C474        C478   1.475       .  S
C474        C475   1.407       .  A
C475        C476   1.393       .  A
C475       Br487   1.921       .  S
C476        H479   1.084       .  S
C478        C480   1.395       .  A
C478        C484   1.398       .  A
C480        C481   1.395       .  A
C480        H485   1.084       .  S
C481        C482   1.430       .  A
C481       Br489   1.916       .  S
C482        C483   1.425       .  A
C483        C484   1.397       .  A
C483        H486   1.078       .  S
C484       Br490   1.919       .  S
C491        C492   1.439       .  A
C491        C496   1.426       .  A
C492        C493   1.409       .  A
C492       Br508   1.925   1_545  S
C493        C494   1.400       .  A
C493        H497   1.084       .  S
C494        C498   1.490       .  S
C494        C495   1.398       .  A
C495        C496   1.396       .  A
C495       Br507   1.919       .  S
C496        H499   1.081       .  S
C498        C500   1.404       .  A
C498        C504   1.409       .  A
C500        C501   1.403       .  A
C500        H505   1.083       .  S
C501        C502   1.415       .  A
C501       Br509   1.920       .  S
C502        C503   1.407       .  A
C503        C504   1.403       .  A
C503        H506   1.083       .  S
C504       Br510   1.918       .  S
C511        C512   1.417       .  A
C511        C516   1.408       .  A
C512        C513   1.406       .  A
C512       Br528   1.919       .  S
C513        C514   1.403       .  A
C513        H517   1.083       .  S
C514        C518   1.481       .  S
C514        C515   1.406       .  A
C515        C516   1.397       .  A
C515       Br527   1.921       .  S
C516        H519   1.083       .  S
C518        C520   1.401       .  A
C518        C524   1.409       .  A
C520        C521   1.399       .  A
C520        H525   1.083       .  S
C521        C522   1.411       .  A
C521       Br529   1.920       .  S
C522        C523   1.405       .  A
C523        C524   1.404       .  A
C523        H526   1.083       .  S
C524       Br530   1.917       .  S
C531        C532   1.419       .  A
C531        C536   1.404       .  A
C532        C533   1.401       .  A
C532       Br548   1.923       .  S
C533        C534   1.402       .  A
C533        H537   1.083       .  S
C534        C538   1.493       .  S
C534        C535   1.415       .  A
C535        C536   1.402       .  A
C535       Br547   1.918       .  S
C536        H539   1.083       .  S
C538        C540   1.401       .  A
C538        C544   1.403       .  A
C540        C541   1.408       .  A
C540        H545   1.084       .  S
C541        C542   1.438       .  A
C541       Br549   1.922   1_565  S
C542        C543   1.426       .  A
C543        C544   1.398       .  A
C543        H546   1.082       .  S
C544       Br550   1.921       .  S
C551        C552   1.411       .  A
C551        C556   1.401       .  A
C552        C553   1.394       .  A
C552       Br568   1.922       .  S
C553        C554   1.398       .  A
C553        H557   1.084       .  S
C554        C558   1.461       .  S
C554        C555   1.405       .  A
C555        C556   1.393       .  A
C555       Br567   1.918       .  S
C556        H559   1.084       .  S
C558        C560   1.391       .  A
C558        C564   1.395       .  A
C560        C561   1.396       .  A
C560        H565   1.084       .  S
C561        C562   1.433       .  A
C561       Br569   1.917   1_455  S
C562        C563   1.422       .  A
C563        C564   1.389       .  A
C563        H566   1.076       .  S
C564       Br570   1.920       .  S
C571        C572   1.420       .  A
C571        C576   1.407       .  A
C572        C573   1.399       .  A
C572       Br588   1.923       .  S
C573        C574   1.400       .  A
C573        H577   1.084       .  S
C574        C578   1.489       .  S
C574        C575   1.410       .  A
C575        C576   1.405       .  A
C575       Br587   1.918       .  S
C576        H579   1.083       .  S
C578        C580   1.397       .  A
C578        C584   1.401       .  A
C580        C581   1.403       .  A
C580        H585   1.084       .  S
C581        C582   1.434       .  A
C581       Br589   1.916       .  S
C582        C583   1.426       .  A
C583        C584   1.399       .  A
C583        H586   1.079       .  S
C584       Br590   1.920       .  S
C591        C592   1.413       .  A
C591        C596   1.406       .  A
C592        C593   1.404       .  A
C592       Br608   1.920       .  S
C593        C594   1.404       .  A
C593        H597   1.083       .  S
C594        C598   1.480       .  S
C594        C595   1.405       .  A
C595        C596   1.397       .  A
C595       Br607   1.919       .  S
C596        H599   1.083       .  S
C598        C600   1.395       .  A
C598        C604   1.398       .  A
C600        C601   1.405       .  A
C600        H605   1.084       .  S
C601        C602   1.445       .  A
C601       Br609   1.930       .  S
C602        C603   1.422       .  A
C603        C604   1.395       .  A
C603        H606   1.083       .  S
C604       Br610   1.919       .  S
C611        C612   1.436       .  A
C611        C616   1.422       .  A
C612        C613   1.397       .  A
C612       Br628   1.925   1_455  S
C613        C614   1.392       .  A
C613        H617   1.084       .  S
C614        C618   1.468       .  S
C614        C615   1.397       .  A
C615        C616   1.392       .  A
C615       Br627   1.921       .  S
C616        H619   1.076       .  S
C618        C620   1.399       .  A
C618        C624   1.403       .  A
C620        C621   1.399       .  A
C620        H625   1.083       .  S
C621        C622   1.415       .  A
C621       Br629   1.920       .  S
C622        C623   1.407       .  A
C623        C624   1.393       .  A
C623        H626   1.083       .  S
C624       Br630   1.920       .  S
C631        C632   1.441       .  A
C631        C636   1.420       .  A
C632        C633   1.401       .  A
C632       Br648   1.930       .  S
C633        C634   1.394       .  A
C633        H637   1.084       .  S
C634        C638   1.478       .  S
C634        C635   1.398       .  A
C635        C636   1.397       .  A
C635       Br647   1.918       .  S
C636        H639   1.076       .  S
C638        C640   1.402       .  A
C638        C644   1.404       .  A
C640        C641   1.402       .  A
C640        H645   1.084       .  S
C641        C642   1.416       .  A
C641       Br649   1.920       .  S
C642        C643   1.409       .  A
C643        C644   1.397       .  A
C643        H646   1.083       .  S
C644       Br650   1.920       .  S
C651        C652   1.409       .  A
C651        C656   1.404       .  A
C652        C653   1.395       .  A
C652       Br668   1.920       .  S
C653        C654   1.400       .  A
C653        H657   1.084       .  S
C654        C658   1.472       .  S
C654        C655   1.407       .  A
C655        C656   1.400       .  A
C655       Br667   1.917       .  S
C656        H659   1.083       .  S
C658        C660   1.399       .  A
C658        C664   1.405       .  A
C660        C661   1.395       .  A
C660        H665   1.084       .  S
C661        C662   1.414       .  A
C661       Br669   1.922       .  S
C662        C663   1.406       .  A
C663        C664   1.401       .  A
C663        H666   1.083       .  S
C664       Br670   1.917       .  S
