geometry optimzed in LAMMPS
_audit_creation_date              2020-11-30 
_audit_creation_method            'lammps2cif' 
_symmetry_space_group_name_H-M    'P1' 
_symmetry_Int_Tables_number       1 
_symmetry_cell_setting            triclinic 
loop_ 
_symmetry_equiv_pos_as_xyz 
  x,y,z 
_cell_length_a                    39.62150392 
_cell_length_b                    47.29388792854512 
_cell_length_c                    26.13733581765828 
_cell_angle_alpha                 90.40473226246978 
_cell_angle_beta                  89.53855567811887 
_cell_angle_gamma                 89.60069302452546 
loop_ 
_atom_site_label 
_atom_site_type_symbol 
_atom_site_fract_x 
_atom_site_fract_y 
_atom_site_fract_z 
_atom_site_charge 
C1          C  0.64896889  0.42850182  0.64800103     0.86300
C2          C  0.63798374  0.44018638  0.59606830    -0.54000
C3          C  0.63861718  0.46904672  0.59254971     0.09200
C4          C  0.64943336  0.48361413  0.64270389     0.20100
C5          C  0.68385836  0.44177290  0.65765903    -0.54700
C6          C  0.68426870  0.47062709  0.65451713     0.09300
C7          C  0.62573693  0.44332448  0.68735466    -0.54200
C8          C  0.62574387  0.47220024  0.68445512     0.09900
H9          H  0.63098552  0.42640842  0.56458245     0.14400
H10         H  0.65245614  0.00812472  0.64043563     0.00100
H11         H  0.70644008  0.42971132  0.66579969     0.14700
H12         H  0.60996593  0.43175691  0.71393570     0.14500
C13         C  0.61733837  0.25911165  0.67798113     0.86300
C14         C  0.61575039  0.25218212  0.62087052    -0.54000
C15         C  0.63974502  0.26522244  0.59192822     0.09200
C16         C  0.66361319  0.28406957  0.62345634     0.20100
C17         C  0.65351562  0.25121330  0.69346972    -0.54700
C18         C  0.67789258  0.26437807  0.66501275     0.09300
C19         C  0.61560806  0.29151747  0.68078732    -0.54200
C20         C  0.63978621  0.30484548  0.65231693     0.09900
H21         H  0.59719614  0.23795779  0.60467084     0.14400
H22         H  0.68323943  0.29439690  0.59970091     0.00100
H23         H  0.65929554  0.23633927  0.72367593     0.14700
H24         H  0.59687939  0.30280481  0.70375069     0.14500
C25         C  0.65064071  0.07688063  0.35025112     0.86300
C26         C  0.64353924  0.06350556  0.40300184    -0.54000
C27         C  0.64597977  0.03451503  0.40322909     0.09200
C28         C  0.65486451  0.02176851  0.35014378     0.20100
C29         C  0.68549898  0.06522604  0.33484400    -0.54700
C30         C  0.68791379  0.03648856  0.33521026     0.09300
C31         C  0.62558120  0.06219922  0.31434517    -0.54200
C32         C  0.62794537  0.03334622  0.31356092     0.09900
H33         H  0.63831477  0.07558260  0.43745018     0.14400
H34         H  0.65191313  0.49660021  0.34795961     0.00100
H35         H  0.70694010  0.07870000  0.32658771     0.14700
H36         H  0.60729044  0.07403807  0.29235114     0.14500
C37         C  0.62450239  0.24237144  0.28580137     0.86300
C38         C  0.62038640  0.25329004  0.34096456    -0.54000
C39         C  0.64320497  0.24222291  0.37435349     0.09200
C40         C  0.66836555  0.22138484  0.34902663     0.20100
C41         C  0.66103976  0.24924056  0.27143897    -0.54700
C42         C  0.68413373  0.23834293  0.30474925     0.09300
C43         C  0.62350905  0.21011638  0.28948778    -0.54200
C44         C  0.64627038  0.19904844  0.32270169     0.09900
H45         H  0.60114725  0.26860240  0.35234152     0.14400
H46         H  0.68699127  0.21224889  0.37589109     0.00100
H47         H  0.66798524  0.26196494  0.23862041     0.14700
H48         H  0.60600238  0.19714397  0.26797556     0.14500
In49       In  0.51505566  0.02666699  0.82951975     1.36900
C50         C  0.46582814  0.00757326  0.76940008     0.77400
O51         O  0.48614429  0.06781752  0.83146875    -0.61100
O52         O  0.53936466  0.06986890  0.82467502    -0.52000
C53         C  0.51546226  0.01160102  0.92808560     0.70000
O54         O  0.49602239  0.00058553  0.89579686    -0.46800
C55         C  0.56691300  0.99975148  0.78519134     0.74700
O56         O  0.45998258  0.01753651  0.81351905    -0.58700
O57         O  0.55611166  0.02334308  0.76960798    -0.48800
O58         O  0.49634766  0.00763353  0.75630766    -0.55100
C59         C  0.51178239  0.08318293  0.82792099     0.84900
O60         O  0.53485888  0.03012915  0.91020262    -0.57000
O61         O  0.54580151  0.48982946  0.82290124    -0.60300
In62       In  0.51106129  0.47489230  0.17486700     1.36900
C63         C  0.46429674  0.49086313  0.24297583     0.77400
O64         O  0.48042681  0.43525359  0.16876386    -0.61100
O65         O  0.53319078  0.43071002  0.17966468    -0.52000
C66         C  0.51052965  0.49008079  0.07693273     0.70000
O67         O  0.49044263  0.50044909  0.10972308    -0.46800
C68         C  0.56215091  0.50437558  0.21321028     0.74700
O69         O  0.45737156  0.48605826  0.19670535    -0.58700
O70         O  0.55829567  0.47835632  0.22231180    -0.48800
O71         O  0.49472357  0.48706168  0.25431453    -0.55100
C72         C  0.50508876  0.41873437  0.17418981     0.84900
O73         O  0.53100466  0.47200478  0.09394831    -0.57000
O74         O  0.53795560  0.01610298  0.19163220    -0.60300
In75       In  0.49458495  0.22556692  0.82820315     1.36900
C76         C  0.55255071  0.24020709  0.78306531     0.77400
O77         O  0.51073699  0.18468322  0.86530895    -0.61100
O78         O  0.48732239  0.18229604  0.79291137    -0.52000
C79         C  0.48267927  0.24057985  0.92492558     0.70000
O80         O  0.51052193  0.24451878  0.90271123    -0.46800
C81         C  0.44725151  0.25501773  0.77795589     0.74700
O82         O  0.54487598  0.24754007  0.82803018    -0.58700
O83         O  0.44406857  0.22905726  0.78746119    -0.48800
O84         O  0.53084352  0.22499974  0.76138329    -0.55100
C85         C  0.50109920  0.16922474  0.82902105     0.84900
O86         O  0.46039149  0.22899842  0.89780249    -0.57000
O87         O  0.47405239  0.26567517  0.79459458    -0.60300
In88       In  0.48626373  0.27703314  0.17337564     1.36900
C89         C  0.53807166  0.26050566  0.22918729     0.77400
O90         O  0.51714730  0.31643552  0.16685767    -0.61100
O91         O  0.46453538  0.32121648  0.18075320    -0.52000
C92         C  0.47945263  0.26254315  0.07554231     0.70000
O93         O  0.50106146  0.25132449  0.10421096    -0.46800
C94         C  0.43870494  0.24784969  0.22187276     0.74700
O95         O  0.54094369  0.26447735  0.18166551    -0.58700
O96         O  0.44437768  0.27352456  0.23216427    -0.48800
O97         O  0.50920374  0.26527365  0.24764148    -0.55100
C98         C  0.49264770  0.33305041  0.17401610     0.84900
O99         O  0.46099985  0.28109768  0.09671671    -0.57000
O100        O  0.45597340  0.23783222  0.18526945    -0.60300
C101        C  0.37515115  0.48991528  0.70437149     0.86300
C102        C  0.38021323  0.49913125  0.64866920    -0.54000
C103        C  0.35797929  0.48718433  0.61547448     0.09200
C104        C  0.33244410  0.46721204  0.64108292     0.20100
C105        C  0.33820975  0.49752189  0.71650161    -0.54700
C106        C  0.31586315  0.48567594  0.68316124     0.09300
C107        C  0.37635770  0.45750274  0.70300631    -0.54200
C108        C  0.35408167  0.44544733  0.66996580     0.09900
H109        H  0.40421727  0.01115936  0.63758446     0.14400
H110        H  0.31421781  0.45781215  0.61384549     0.00100
H111        H  0.33790738  0.01091125  0.75284792     0.14700
H112        H  0.39311757  0.44516844  0.72697705     0.14500
C113        C  0.34431217  0.32220754  0.66320075     0.86300
C114        C  0.35436899  0.31042856  0.61044855    -0.54000
C115        C  0.35489753  0.28162500  0.60721400     0.09200
C116        C  0.34606604  0.26701207  0.65799491     0.20100
C117        C  0.31019203  0.30810203  0.67538911    -0.54700
C118        C  0.31083420  0.27912876  0.67238601     0.09300
C119        C  0.36892841  0.30835474  0.70081928    -0.54200
C120        C  0.37059016  0.27949656  0.69756551     0.09900
H121        H  0.35946091  0.32390166  0.57782661     0.14400
H122        H  0.34728114  0.24360099  0.65584431     0.00100
H123        H  0.28727669  0.31975808  0.68418417     0.14700
H124        H  0.38365191  0.32066316  0.72761705     0.14500
C125        C  0.37862543  0.00760822  0.31425758     0.86300
C126        C  0.38283765  0.99858252  0.37026785    -0.54000
C127        C  0.36085740  0.01166909  0.40360456     0.09200
C128        C  0.33659035  0.03267655  0.37743413     0.20100
C129        C  0.34143387  0.00164402  0.30268018    -0.54700
C130        C  0.31935926  0.01469305  0.33593482     0.09300
C131        C  0.38128245  0.03987752  0.31466952    -0.54200
C132        C  0.35929163  0.05319428  0.34732806     0.09900
H133        H  0.40501663  0.48780254  0.38009261     0.14400
H134        H  0.31840937  0.04314197  0.40414302     0.00100
H135        H  0.33740445  0.48941889  0.26896065     0.14700
H136        H  0.39909486  0.05121717  0.29071951     0.14500
C137        C  0.35545168  0.17655423  0.36164738     0.86300
C138        C  0.36226792  0.19008724  0.41446875    -0.54000
C139        C  0.35959947  0.21896751  0.41560959     0.09200
C140        C  0.35107302  0.23166098  0.36292989     0.20100
C141        C  0.32075527  0.18809371  0.34634875    -0.54700
C142        C  0.31824845  0.21690164  0.34745448     0.09300
C143        C  0.38073440  0.19120584  0.32581847    -0.54200
C144        C  0.37812237  0.22006548  0.32581775     0.09900
H145        H  0.36789876  0.17802987  0.44835884     0.14400
H146        H  0.34938357  0.25505852  0.36248198     0.00100
H147        H  0.29955720  0.17450212  0.33751712     0.14700
H148        H  0.39936498  0.17961033  0.30325891     0.12900
C149        C  0.11988757  0.00890402  0.71708664     0.86300
C150        C  0.11546350  0.99882630  0.66168334    -0.54000
C151        C  0.13831946  0.00972046  0.62802214     0.09200
C152        C  0.16399687  0.02953208  0.65342468     0.20100
C153        C  0.15636646  0.00081027  0.72996015    -0.54700
C154        C  0.17958465  0.01159222  0.69631489     0.09300
C155        C  0.11971413  0.04126786  0.71498172    -0.54200
C156        C  0.14277136  0.05209922  0.68169131     0.09900
H157        H  0.08962895  0.48769301  0.62574215     0.14400
H158        H  0.18262709  0.03862160  0.62634734     0.00100
H159        H  0.15685955  0.48690325  0.73807682     0.14700
H160        H  0.10274538  0.05447471  0.73781147     0.14500
C161        C  0.15018310  0.17447998  0.65963755     0.86300
C162        C  0.14335526  0.18813480  0.60715210    -0.54000
C163        C  0.14524253  0.21706545  0.60727492     0.09200
C164        C  0.15308030  0.22963528  0.66058732     0.20100
C165        C  0.18463536  0.18624328  0.67525334    -0.54700
C166        C  0.18643358  0.21503996  0.67529415     0.09300
C167        C  0.12449733  0.18883811  0.69595992    -0.54200
C168        C  0.12579953  0.21775533  0.69676939     0.09900
H169        H  0.13917504  0.17635126  0.57228481     0.14400
H170        H  0.15420307  0.25304507  0.66182194     0.00100
H171        H  0.20631523  0.17279595  0.68301315     0.14700
H172        H  0.10722478  0.17667308  0.71926489     0.14500
C173        C  0.12212230  0.48735951  0.29994651     0.86300
C174        C  0.11429110  0.49620770  0.35554279    -0.54000
C175        C  0.13679009  0.48589955  0.39029152     0.09200
C176        C  0.16488583  0.46749922  0.36595375     0.20100
C177        C  0.15851307  0.49719310  0.29074755    -0.54700
C178        C  0.18087714  0.48674829  0.32549820     0.09300
C179        C  0.12424783  0.45497068  0.30056347    -0.54200
C180        C  0.14648466  0.44450338  0.33534764     0.09900
H181        H  0.09160418  0.01080096  0.39805391     0.14400
H182        H  0.18328055  0.45883271  0.39366397     0.00100
H183        H  0.15772072  0.01925904  0.28358961     0.14700
H184        H  0.10898282  0.44151846  0.27625654     0.14500
C185        C  0.15721178  0.32247100  0.36394424     0.86300
C186        C  0.14885627  0.31033227  0.41725567    -0.54000
C187        C  0.14981914  0.28147859  0.41922854     0.09200
C188        C  0.15863570  0.26731563  0.36779128     0.20100
C189        C  0.19174967  0.30933359  0.35002747    -0.54700
C190        C  0.19283983  0.28036345  0.35250610     0.09300
C191        C  0.13206976  0.30785300  0.32806725    -0.54200
C192        C  0.13321781  0.27902861  0.32942443     0.09900
H193        H  0.14279229  0.32283409  0.45095353     0.14400
H194        H  0.15834786  0.24391611  0.36892001     0.00100
H195        H  0.21364535  0.32219657  0.34163717     0.14700
H196        H  0.11463085  0.31949480  0.30414357     0.14500
In197      In  0.98192912  0.47431179  0.82476456     1.36900
C198        C  0.02974999  0.49014136  0.75923220     0.77400
O199        O  0.01191118  0.43388766  0.82891581    -0.61100
O200        O  0.95874255  0.43072333  0.82288251    -0.52000
C201        C  0.98160770  0.48991456  0.92300693     0.70000
O202        O  0.00332231  0.49846635  0.89139251    -0.46800
C203        C  0.93179721  0.50385135  0.78361726     0.74700
O204        O  0.03551730  0.48628761  0.80607519    -0.58700
O205        O  0.93633307  0.47785233  0.77416107    -0.48800
O206        O  0.99996570  0.48520278  0.74582783    -0.55100
C207        C  0.98666572  0.41802005  0.82656537     0.84900
O208        O  0.95977135  0.47358013  0.90460451    -0.57000
O209        O  0.94865007  0.01376070  0.81844298    -0.60300
In210      In  0.99701338  0.02662446  0.17209024     1.36900
C211        C  0.05387171  0.01155900  0.21783849     0.77400
O212        O  0.02375751  0.06616603  0.14724818    -0.61100
O213        O  0.98298989  0.07045256  0.19986860    -0.52000
C214        C  0.98353869  0.01268147  0.07546036     0.70000
O215        O  0.00915399  0.00388617  0.09860755    -0.46800
C216        C  0.95082594  0.99745425  0.22509777     0.74700
O217        O  0.04833198  0.00598001  0.17149150    -0.58700
O218        O  0.94690266  0.02326421  0.21474693    -0.48800
O219        O  0.03046209  0.02504367  0.24045930    -0.55100
C220        C  0.00591518  0.08244494  0.17462684     0.84900
O221        O  0.96443707  0.02873869  0.10139539    -0.57000
O222        O  0.95380618  0.48903312  0.17729029    -0.60300
In223      In  0.00494041  0.27607403  0.83412870     1.36900
C224        C  0.94670851  0.26339849  0.78870376     0.77400
O225        O  0.98087868  0.31681254  0.86147091    -0.61100
O226        O  0.01945792  0.31911375  0.80483852    -0.52000
C227        C  0.01733945  0.26207400  0.93115244     0.70000
O228        O  0.99438812  0.25096124  0.90510074    -0.46800
C229        C  0.05118594  0.24519441  0.78191366     0.74700
O230        O  0.95215068  0.25853079  0.83521375    -0.58700
O231        O  0.05551960  0.27105107  0.79185356    -0.48800
O232        O  0.97084565  0.27517966  0.76559012    -0.55100
C233        C  0.99814986  0.33219164  0.83232207     0.84900
O234        O  0.03448579  0.28032863  0.90782076    -0.57000
O235        O  0.02400041  0.23545882  0.79926016    -0.60300
In236      In  0.02418233  0.22413628  0.17886792     1.36900
C237        C  0.97321191  0.24318573  0.23596725     0.77400
O238        O  0.99409224  0.18409187  0.18230650    -0.61100
O239        O  0.04730713  0.18020406  0.17699095    -0.52000
C240        C  0.02528746  0.23948498  0.08096672     0.70000
O241        O  0.00473466  0.24973396  0.11315551    -0.46800
C242        C  0.07430953  0.25128262  0.22466774     0.74700
O243        O  0.96969268  0.23638677  0.18957770    -0.58700
O244        O  0.06446544  0.22725158  0.23901733    -0.48800
O245        O  0.00258359  0.24013978  0.25302564    -0.55100
C246        C  0.01927252  0.16788434  0.17959242     0.84900
O247        O  0.04556291  0.22142469  0.09857240    -0.57000
O248        O  0.05985295  0.26055440  0.18539388    -0.60300
C249        C  0.84951531  0.07739633  0.64206302     0.86300
C250        C  0.85903378  0.06409918  0.58994560    -0.54000
C251        C  0.85646647  0.03520263  0.58808419     0.09200
C252        C  0.84565230  0.02227313  0.63972474     0.20100
C253        C  0.81400377  0.06581536  0.65403879    -0.54700
C254        C  0.81201925  0.03705068  0.65239708     0.09300
C255        C  0.87234789  0.06235886  0.68108087    -0.54200
C256        C  0.87053247  0.03345887  0.67970920     0.09900
H257        H  0.86489889  0.07681557  0.55667704     0.14400
H258        H  0.84174876  0.49567178  0.64651988     0.00100
H259        H  0.79213156  0.07881951  0.66330499     0.14700
H260        H  0.88869071  0.07373188  0.70698001     0.14500
C261        C  0.88205771  0.24649913  0.68291291     0.86300
C262        C  0.88494756  0.25389861  0.62622308    -0.54000
C263        C  0.86143505  0.24134801  0.59599660     0.09200
C264        C  0.83666508  0.22252882  0.62576468     0.20100
C265        C  0.84562675  0.25470146  0.69786753    -0.54700
C266        C  0.82169475  0.24205414  0.66792417     0.09300
C267        C  0.88316748  0.21403086  0.68395894    -0.54200
C268        C  0.85954002  0.20117230  0.65389855     0.09900
H269        H  0.90409737  0.26799269  0.61119918     0.14400
H270        H  0.81748958  0.21272652  0.60073877     0.00100
H271        H  0.83940098  0.26936204  0.72873230     0.14700
H272        H  0.90130368  0.20239687  0.70667871     0.14500
C273        C  0.84745339  0.42777632  0.34521922     0.86300
C274        C  0.85642035  0.43928776  0.39842621    -0.54000
C275        C  0.85534418  0.46810704  0.40247525     0.09200
C276        C  0.84591203  0.48297696  0.35233360     0.20100
C277        C  0.81275639  0.44108276  0.33365995    -0.54700
C278        C  0.81180749  0.46987900  0.33805960     0.09300
C279        C  0.87166991  0.44277573  0.30810559    -0.54200
C280        C  0.87110473  0.47169068  0.31182480     0.09900
H281        H  0.86189474  0.42566266  0.43064475     0.14400
H282        H  0.84947929  0.00961187  0.34749127     0.00100
H283        H  0.79050412  0.42933726  0.32311090     0.14700
H284        H  0.88848849  0.43120580  0.28244822     0.14500
C285        C  0.88560662  0.26171447  0.29111655     0.86300
C286        C  0.88829253  0.25161852  0.34653066    -0.54000
C287        C  0.86392500  0.26250701  0.37848118     0.09200
C288        C  0.83886362  0.28237638  0.35144781     0.20100
C289        C  0.84978078  0.25370131  0.27507127    -0.54700
C290        C  0.82536242  0.26449382  0.30685324     0.09300
C291        C  0.88550935  0.29406000  0.29455737    -0.54200
C292        C  0.86115847  0.30504670  0.32626893     0.09900
H293        H  0.90768055  0.23693798  0.35905857     0.14400
H294        H  0.81888401  0.29118022  0.37709179     0.00100
H295        H  0.84421498  0.24013172  0.24256294     0.14700
H296        H  0.90314233  0.30710200  0.27336269     0.14500
C297        C  0.88211449  0.38257063  0.34359454    -0.13600
C298        C  0.85000271  0.39549076  0.34275763     0.08600
C299        C  0.82143635  0.37778337  0.34161937    -0.13600
C300        C  0.82507104  0.34838697  0.33789902    -0.13600
C301        C  0.85720014  0.33592768  0.33502086     0.08600
C302        C  0.88569556  0.35325932  0.33896254    -0.13600
H303        H  0.90463053  0.39529345  0.34676198     0.12600
H304        H  0.79609487  0.38611695  0.34422060     0.12600
H305        H  0.80267325  0.33548521  0.33597910     0.12600
H306        H  0.91083487  0.34412061  0.33844646     0.12600
C307        C  0.89216494  0.24697258  0.51313824    -0.13600
C308        C  0.86135943  0.24515232  0.53978690     0.08600
C309        C  0.83106151  0.24807662  0.51276503    -0.13600
C310        C  0.83170919  0.25363611  0.46014461    -0.13600
C311        C  0.86265859  0.25604491  0.43387722     0.08600
C312        C  0.89281501  0.25242621  0.46092005    -0.13600
H313        H  0.91592548  0.24430748  0.53277340     0.12600
H314        H  0.80698604  0.24683655  0.53249698     0.12600
H315        H  0.80806958  0.25591969  0.44004614     0.12600
H316        H  0.91707040  0.25442212  0.44197234     0.12600
C317        C  0.83864082  0.99392039  0.53386516    -0.13600
C318        C  0.85825760  0.01843274  0.53936585     0.08600
C319        C  0.87782511  0.02730817  0.49723348    -0.13600
C320        C  0.87390662  0.50943175  0.45574284    -0.13600
C321        C  0.85761004  0.48328548  0.45216195     0.08600
C322        C  0.84117076  0.47256788  0.49554036    -0.13600
H323        H  0.82209899  0.98691349  0.56425856     0.12600
H324        H  0.89332868  0.04599464  0.49995775     0.12600
H325        H  0.88684500  0.51809516  0.42279768     0.12600
H326        H  0.82764816  0.45277324  0.49349562     0.12600
C327        C  0.82413671  0.12731364  0.63262887    -0.13600
C328        C  0.85226061  0.10975152  0.64233518     0.08600
C329        C  0.88359072  0.12289206  0.65032277    -0.13600
C330        C  0.88600586  0.15237258  0.65371286    -0.13600
C331        C  0.85730928  0.16974202  0.64787705     0.08600
C332        C  0.82658389  0.15678072  0.63582107    -0.13600
H333        H  0.80002290  0.11854597  0.62225425     0.12600
H334        H  0.90635616  0.11038161  0.65452863     0.12600
H335        H  0.91055357  0.16148988  0.66046311     0.12600
H336        H  0.80407520  0.16921786  0.62958202     0.12600
C337        C  0.91307615  0.25021957  0.25655152    -0.16600
C338        C  0.94562557  0.25404407  0.26828087    -0.31800
H339        H  0.90635057  0.23858832  0.22214483     0.12400
H340        H  0.95221161  0.26480341  0.30366826     0.12900
C341        C  0.90992210  0.26016827  0.71359878    -0.16600
C342        C  0.91518136  0.25474698  0.76323991    -0.31800
H343        H  0.92812697  0.27312257  0.69327356     0.12400
H344        H  0.89731843  0.24187573  0.78432639     0.12900
C345        C  0.02291579  0.25455705  0.98372904    -0.13500
C346        C  0.02515611  0.24768068  0.02802414    -0.15000
C347        C  0.90995080  0.48235936  0.23915359    -0.16600
C348        C  0.89405393  0.49062120  0.28253526    -0.31800
H349        H  0.93309508  0.95839696  0.25988099     0.12400
H350        H  0.89862547  0.51159298  0.29807760     0.12900
C351        C  0.01588240  0.13764540  0.17875018    -0.13500
C352        C  0.01149184  0.11242613  0.17707413    -0.15000
C353        C  0.90725297  0.02240041  0.75440211    -0.16600
C354        C  0.89114249  0.01399621  0.71182994    -0.31800
H355        H  0.90427447  0.04390919  0.76842054     0.12400
H356        H  0.89219738  0.49039651  0.70425222     0.12900
C357        C  0.98977370  0.38771278  0.82831943    -0.13500
C358        C  0.99356839  0.36237682  0.83021664    -0.15000
C359        C  0.97717405  0.00501442  0.02318614    -0.13500
C360        C  0.98202615  0.49803149  0.97619173    -0.15000
C361        C  0.09910642  0.26832148  0.25272242    -0.16600
C362        C  0.11159285  0.26031816  0.29805821    -0.31800
H363        H  0.10569969  0.28871165  0.23682719     0.12400
H364        H  0.10597357  0.23943640  0.31277496     0.12900
C365        C  0.15236938  0.40275507  0.39294126    -0.13600
C366        C  0.15153393  0.41380898  0.34336453     0.08600
C367        C  0.15474467  0.39534788  0.30142464    -0.13600
C368        C  0.15797244  0.36624942  0.30889219    -0.13600
C369        C  0.15666248  0.35467060  0.35839655     0.08600
C370        C  0.15472680  0.37352549  0.40049570    -0.13600
H371        H  0.15024976  0.41669077  0.42590191     0.12600
H372        H  0.15484262  0.40346841  0.26278160     0.12600
H373        H  0.16052777  0.35258403  0.27564542     0.12600
H374        H  0.15525684  0.36621700  0.43943911     0.12600
C375        C  0.09692688  0.49848202  0.26182347    -0.16600
C376        C  0.08476229  0.00215958  0.24383251    -0.31800
H377        H  0.06914206  0.01819257  0.31517589     0.12400
H378        H  0.10352377  0.98996640  0.22229807     0.12900
C379        C  0.12750818  0.22468336  0.51539093    -0.13600
C380        C  0.14450684  0.23417213  0.55943319     0.08600
C381        C  0.16257451  0.25961216  0.55668444    -0.13600
C382        C  0.16343178  0.27522364  0.51159438    -0.13600
C383        C  0.14681379  0.26557172  0.46770333     0.08600
C384        C  0.12900014  0.24008249  0.46983339    -0.13600
H385        H  0.11301808  0.20538748  0.51591955     0.12600
H386        H  0.17713058  0.26720177  0.58870675     0.12600
H387        H  0.17813830  0.29443086  0.51053642     0.12600
H388        H  0.11598884  0.23221360  0.43639886     0.12600
C389        C  0.10310155  0.23648232  0.72856247    -0.16600
C390        C  0.07499156  0.22705651  0.75222495    -0.31800
H391        H  0.10916752  0.25880773  0.73096339     0.12400
H392        H  0.06784129  0.20508571  0.74851631     0.12900
C393        C  0.10760222  0.99701605  0.54789833    -0.13600
C394        C  0.13821928  0.00255496  0.57269027     0.08600
C395        C  0.16463325  0.50362410  0.52507955    -0.13600
C396        C  0.16559240  0.49672570  0.47302830    -0.13600
C397        C  0.13555202  0.49333182  0.44551910     0.08600
C398        C  0.10715477  0.99064343  0.49582838    -0.13600
H399        H  0.08379369  0.99824440  0.56840093     0.12600
H400        H  0.18819149  0.50557938  0.54546517     0.12600
H401        H  0.18991945  0.49438527  0.45428140     0.12600
H402        H  0.08313286  0.98666022  0.47775467     0.12600
C403        C  0.14623245  0.12411428  0.62007471    -0.13600
C404        C  0.14949348  0.14219998  0.66301454     0.08600
C405        C  0.15284589  0.12973924  0.71154441    -0.13600
C406        C  0.15108982  0.10048746  0.71745290    -0.13600
C407        C  0.14692041  0.08282316  0.67479628     0.08600
C408        C  0.14526326  0.09472413  0.62601589    -0.13600
H409        H  0.14454267  0.13207454  0.58168600     0.12600
H410        H  0.15618454  0.14283499  0.74526933     0.12600
H411        H  0.15289845  0.09160578  0.75543221     0.12600
H412        H  0.14221119  0.08129926  0.59263248     0.12600
C413        C  0.05514630  0.50047485  0.72283483    -0.16600
C414        C  0.09312515  0.99756650  0.75258254    -0.31800
H415        H  0.04635044  0.51054520  0.68811604     0.12400
H416        H  0.10028183  0.98600220  0.78663678     0.12900
C417        C  0.25717961  0.22139743  0.36885586    -0.13600
C418        C  0.28560470  0.23207329  0.34354436     0.08600
C419        C  0.28323514  0.25825958  0.31891728    -0.13600
C420        C  0.25285762  0.27361927  0.32003154    -0.13600
C421        C  0.22455084  0.26333641  0.34692020     0.08600
C422        C  0.22724232  0.23693825  0.37108886    -0.13600
H423        H  0.25858712  0.20161334  0.38937500     0.12600
H424        H  0.30490587  0.26688403  0.29908317     0.12600
H425        H  0.25179116  0.29362335  0.30028679     0.12600
H426        H  0.20690022  0.22852967  0.39397662     0.12600
C427        C  0.27563561  0.48015159  0.32874115    -0.13600
C428        C  0.28271446  0.00913705  0.33565916     0.08600
C429        C  0.25911230  0.03140537  0.33530705    -0.13600
C430        C  0.22443202  0.02563938  0.33558223    -0.13600
C431        C  0.21683328  0.49439423  0.32627779     0.08600
C432        C  0.24152489  0.47308876  0.32715758    -0.13600
H433        H  0.29440864  0.46338993  0.32896291     0.12600
H434        H  0.26753657  0.05314038  0.33445094     0.12600
H435        H  0.20652184  0.04304214  0.33547988     0.12600
H436        H  0.23437988  0.45102156  0.32604179     0.12600
C437        C  0.35207454  0.09784950  0.39849507    -0.13600
C438        C  0.35715555  0.08448181  0.35111010     0.08600
C439        C  0.36045449  0.10120021  0.30716180    -0.13600
C440        C  0.35958753  0.13068056  0.31088587    -0.13600
C441        C  0.35659892  0.14429144  0.35883340     0.08600
C442        C  0.35170141  0.12732891  0.40241799    -0.13600
H443        H  0.34870404  0.08558807  0.43276288     0.12600
H444        H  0.36326385  0.09146539  0.26972762     0.12600
H445        H  0.36142763  0.14287423  0.27608699     0.12600
H446        H  0.34672482  0.13644566  0.43968780     0.12600
C447        C  0.27703030  0.23606470  0.64929248    -0.13600
C448        C  0.27969740  0.26156372  0.67693660     0.08600
C449        C  0.25164924  0.27085120  0.70625267    -0.13600
C450        C  0.22149034  0.25553978  0.70648986    -0.13600
C451        C  0.21896849  0.23028571  0.67849494     0.08600
C452        C  0.24713953  0.22053269  0.65037978    -0.13600
H453        H  0.29748771  0.22851974  0.62507584     0.12600
H454        H  0.25279421  0.29009530  0.72876339     0.12600
H455        H  0.20009760  0.26343889  0.72847922     0.12600
H456        H  0.24559491  0.20142335  0.62744693     0.12600
C457        C  0.34217113  0.27675924  0.51416207    -0.13600
C458        C  0.35851452  0.26636775  0.55768317     0.08600
C459        C  0.37656227  0.24083332  0.55398298    -0.13600
C460        C  0.37813248  0.22591603  0.50749602    -0.13600
C461        C  0.36094476  0.23591427  0.46405666     0.08600
C462        C  0.34309443  0.26163435  0.46815855    -0.13600
H463        H  0.32739185  0.29608711  0.51622477     0.12600
H464        H  0.38953714  0.23247688  0.58697197     0.12600
H465        H  0.39269273  0.20650168  0.50591778     0.12600
H466        H  0.32854885  0.26975016  0.43662526     0.12600
C467        C  0.25559342  0.47133999  0.68981264    -0.13600
C468        C  0.27958477  0.49265505  0.68362380     0.08600
C469        C  0.27400203  0.01961394  0.68416893    -0.13600
C470        C  0.23961848  0.02613275  0.68590673    -0.13600
C471        C  0.21604678  0.00522259  0.69845640     0.08600
C472        C  0.22119039  0.47782659  0.68773904    -0.13600
H473        H  0.26344932  0.44976189  0.69657230     0.12600
H474        H  0.29191389  0.03588248  0.67397585     0.12600
H475        H  0.23145599  0.04747560  0.67738804     0.12600
H476        H  0.20305577  0.46098242  0.69226396     0.12600
C477        C  0.35707977  0.01987480  0.54821449    -0.13600
C478        C  0.35793706  0.49406225  0.56047496     0.08600
C479        C  0.36335682  0.47278096  0.52376298    -0.13600
C480        C  0.36526232  0.47959382  0.47180736    -0.13600
C481        C  0.35935011  0.00472938  0.45903596     0.08600
C482        C  0.35653593  0.02628212  0.49602720    -0.13600
H483        H  0.35563873  0.03691380  0.57608099     0.12600
H484        H  0.36680461  0.45102141  0.53542426     0.12600
H485        H  0.36967161  0.46281317  0.44410640     0.12600
H486        H  0.35501435  0.04814173  0.48474015     0.12600
C487        C  0.38008046  0.39714223  0.66454640    -0.13600
C488        C  0.35106537  0.41429428  0.66447402     0.08600
C489        C  0.31936815  0.40141045  0.66149265    -0.13600
C490        C  0.31660338  0.37187816  0.66155178    -0.13600
C491        C  0.34566608  0.35452237  0.66393651     0.08600
C492        C  0.37742392  0.36774050  0.66329066    -0.13600
H493        H  0.40493763  0.40650780  0.66539977     0.12600
H494        H  0.29663236  0.41411923  0.66026493     0.12600
H495        H  0.29165268  0.36305073  0.65877408     0.12600
H496        H  0.40040866  0.35521743  0.66254620     0.12600
C497        C  0.41517361  0.23003693  0.25109462    -0.16600
C498        C  0.39945997  0.23897083  0.29408999    -0.31800
H499        H  0.41190969  0.20850603  0.23753880     0.12400
H500        H  0.40193988  0.26084877  0.30632833     0.12900
C501        C  0.39439500  0.26163358  0.72777452    -0.16600
C502        C  0.42237090  0.27220719  0.74968281    -0.31800
H503        H  0.38958039  0.23909320  0.72985279     0.12400
H504        H  0.42838169  0.29440095  0.74552949     0.12900
C505        C  0.47745852  0.24838377  0.97767347    -0.13500
C506        C  0.47671851  0.25496950  0.02237704    -0.15000
C507        C  0.40350266  0.99417180  0.27694958    -0.16600
C508        C  0.43950240  0.50101769  0.28103639    -0.31800
H509        H  0.39421262  0.98390454  0.24255684     0.12400
H510        H  0.44887256  0.51141496  0.31524365     0.12900
C511        C  0.50109222  0.38851101  0.17430602    -0.13500
C512        C  0.49678998  0.36324946  0.17434429    -0.15000
C513        C  0.40055988  0.50234237  0.74081557    -0.16600
C514        C  0.43981106  0.99627564  0.73521659    -0.31800
H515        H  0.39832417  0.01355555  0.77549093     0.12400
H516        H  0.44816269  0.98411732  0.70196329     0.12900
C517        C  0.50941602  0.11359246  0.82801898    -0.13500
C518        C  0.50582191  0.13899661  0.82858364    -0.15000
C519        C  0.51540756  0.00371224  0.98137589    -0.13500
C520        C  0.51004419  0.49825596  0.02401730    -0.15000
C521        C  0.74446368  0.22319605  0.31093690    -0.13600
C522        C  0.72053749  0.24445740  0.30127130     0.08600
C523        C  0.73145992  0.27205973  0.29105266    -0.13600
C524        C  0.76576389  0.27848982  0.29200903    -0.13600
C525        C  0.78954329  0.25730717  0.30210715     0.08600
C526        C  0.77885493  0.22954124  0.31084008    -0.13600
H527        H  0.73653186  0.20177566  0.31876941     0.12600
H528        H  0.71338915  0.28885826  0.28412873     0.12600
H529        H  0.77374378  0.29998729  0.28520322     0.12600
H530        H  0.79706843  0.21303555  0.31908921     0.12600
C531        C  0.59820438  0.25378551  0.25001995    -0.16600
C532        C  0.56545567  0.25043362  0.26154565    -0.31800
H533        H  0.60576259  0.26467454  0.21533667     0.12400
H534        H  0.55832829  0.24050669  0.29739436     0.12900
C535        C  0.74821949  0.03065192  0.35977803    -0.13600
C536        C  0.72066312  0.02147270  0.33079435     0.08600
C537        C  0.72070050  0.49055326  0.36069846    -0.13600
C538        C  0.75082647  0.47524567  0.36004226    -0.13600
C539        C  0.77973722  0.48613196  0.33628454     0.08600
C540        C  0.77870778  0.01568386  0.35851838    -0.13600
H541        H  0.74577204  0.04890078  0.38485178     0.12600
H542        H  0.69973458  0.48171175  0.38139631     0.12600
H543        H  0.75174898  0.45515116  0.37963680     0.12600
H544        H  0.79880056  0.02261850  0.38331607     0.12600
C545        C  0.65191823  0.12073161  0.29633034    -0.13600
C546        C  0.64953521  0.10905431  0.34565194     0.08600
C547        C  0.64784885  0.12774425  0.38800447    -0.13600
C548        C  0.64784826  0.15711155  0.38074371    -0.13600
C549        C  0.64895205  0.16828560  0.33124339     0.08600
C550        C  0.65103795  0.14987386  0.28917846    -0.13600
H551        H  0.65414723  0.10712368  0.26294844     0.12600
H552        H  0.64706583  0.12015340  0.42678546     0.12600
H553        H  0.64622022  0.17110369  0.41368399     0.12600
H554        H  0.65222178  0.15810090  0.25063191     0.12600
C555        C  0.60587404  0.01436542  0.28272239    -0.16600
C556        C  0.58581949  0.02369219  0.24490051    -0.31800
H557        H  0.60382730  0.49119617  0.28990972     0.12400
H558        H  0.58599962  0.04575550  0.23403583     0.12900
C559        C  0.76175077  0.22546428  0.67049308    -0.13600
C560        C  0.78484610  0.24781326  0.67277944     0.08600
C561        C  0.77241901  0.27567086  0.67605354    -0.13600
C562        C  0.73758673  0.28105352  0.67462216    -0.13600
C563        C  0.71457362  0.25869661  0.67093087     0.08600
C564        C  0.72694773  0.23082007  0.67009314    -0.13600
H565        H  0.77062687  0.20382603  0.66866114     0.12600
H566        H  0.78967905  0.29330378  0.67770975     0.12600
H567        H  0.72865852  0.30267460  0.67619725     0.12600
H568        H  0.70971144  0.21321542  0.66722322     0.12600
C569        C  0.67233434  0.25823123  0.50970873    -0.13600
C570        C  0.64132894  0.26142625  0.53557196     0.08600
C571        C  0.61126085  0.25937934  0.50770549    -0.13600
C572        C  0.61203654  0.25343428  0.45546038    -0.13600
C573        C  0.64291112  0.24941077  0.42967670     0.08600
C574        C  0.67311548  0.25206145  0.45713160    -0.13600
H575        H  0.69585030  0.25960097  0.53037871     0.12600
H576        H  0.58698175  0.26215926  0.52646021     0.12600
H577        H  0.58833843  0.25130582  0.43549717     0.12600
H578        H  0.69727821  0.24942767  0.43797580     0.12600
C579        C  0.58944682  0.24479839  0.70770079    -0.16600
C580        C  0.58374071  0.24983952  0.75760051    -0.31800
H581        H  0.57185495  0.23159439  0.68677467     0.12400
H582        H  0.60081889  0.26330549  0.77888591     0.12900
C583        C  0.72193777  0.01512110  0.62984315    -0.13600
C584        C  0.71576971  0.48751158  0.65849220     0.08600
C585        C  0.74329022  0.47811636  0.68786589    -0.13600
C586        C  0.77356162  0.49321241  0.68834923    -0.13600
C587        C  0.77978974  0.02174469  0.65702624     0.08600
C588        C  0.75166662  0.03073879  0.62913384    -0.13600
H589        H  0.70148630  0.02192055  0.60558752     0.12600
H590        H  0.74156891  0.45906901  0.71038878     0.12600
H591        H  0.79455679  0.48538728  0.71058203     0.12600
H592        H  0.75315128  0.04926272  0.60509544     0.12600
C593        C  0.62408257  0.51304927  0.54297227    -0.13600
C594        C  0.63387642  0.48446807  0.54341864     0.08600
C595        C  0.64151640  0.47119430  0.49650471    -0.13600
C596        C  0.66150804  0.99142140  0.45401597    -0.13600
C597        C  0.64389897  0.01728959  0.45087846     0.08600
C598        C  0.62567874  0.02689887  0.49422782    -0.13600
H599        H  0.61673966  0.52383103  0.57800289     0.12600
H600        H  0.64929473  0.44924469  0.49476409     0.12600
H601        H  0.67691768  0.98364745  0.42257260     0.12600
H602        H  0.61143582  0.04647944  0.49334764     0.12600
C603        C  0.61555373  0.38288621  0.65244883    -0.13600
C604        C  0.64718479  0.39618800  0.64902447     0.08600
C605        C  0.67603798  0.37885491  0.64251625    -0.13600
C606        C  0.67350594  0.34938378  0.64282438    -0.13600
C607        C  0.64216747  0.33625875  0.64944598     0.08600
C608        C  0.61310496  0.35340279  0.65340733    -0.13600
H609        H  0.59255819  0.39535345  0.65464149     0.12600
H610        H  0.70072239  0.38763458  0.63590824     0.12600
H611        H  0.69632149  0.33699229  0.63834046     0.12600
H612        H  0.58831509  0.34406984  0.65651948     0.12600
C613        C  0.60345944  0.49110501  0.71564742    -0.16600
C614        C  0.58913417  0.48297602  0.75993384    -0.31800
H615        H  0.59785084  0.51194890  0.70057820     0.12400
H616        H  0.60000019  0.96270855  0.77439482     0.12900
C617        C  0.65535256  0.92957836  0.64684548     0.86300
C618        C  0.64610733  0.94113159  0.59393803    -0.54000
C619        C  0.64549829  0.96996526  0.59119616     0.09200
C620        C  0.65363845  0.98471352  0.64208848     0.20100
C621        C  0.68929902  0.94387088  0.65941529    -0.54700
C622        C  0.68856087  0.97276610  0.65628797     0.09300
C623        C  0.63011814  0.94362789  0.68434293    -0.54200
C624        C  0.62912975  0.97247928  0.68180430     0.09900
H625        H  0.64182408  0.92756208  0.56095340     0.14400
H626        H  0.64943317  0.50701004  0.64145678     0.00100
H627        H  0.71231220  0.93257335  0.66807063     0.14700
H628        H  0.61395729  0.93157958  0.70969820     0.14500
C629        C  0.62629485  0.76304656  0.69859043     0.86300
C630        C  0.62153108  0.75247671  0.64357654    -0.54000
C631        C  0.64356530  0.76383212  0.60905694     0.09200
C632        C  0.66895651  0.78441752  0.63333568     0.20100
C633        C  0.66333539  0.75622377  0.71056667    -0.54700
C634        C  0.68589963  0.76707955  0.67598002     0.09300
C635        C  0.62449678  0.79535292  0.69532392    -0.54200
C636        C  0.64683775  0.80667502  0.66132224     0.09900
H637        H  0.60234575  0.73726651  0.63304277     0.14400
H638        H  0.68668133  0.79370802  0.60513811     0.00100
H639        H  0.67086259  0.74337179  0.74283453     0.14700
H640        H  0.60727321  0.80817051  0.71842750     0.14500
C641        C  0.64934622  0.57490084  0.34992783     0.86300
C642        C  0.63848279  0.56173741  0.40139956    -0.54000
C643        C  0.63976954  0.53268334  0.40258827     0.09200
C644        C  0.65139021  0.51984891  0.35060771     0.20100
C645        C  0.68451182  0.56237992  0.33899675    -0.54700
C646        C  0.68598678  0.53349711  0.33984266     0.09300
C647        C  0.62588607  0.56082380  0.31077351    -0.54200
C648        C  0.62717242  0.53196942  0.31065947     0.09900
H649        H  0.63069459  0.57444857  0.43385203     0.14400
H650        H  0.65663217  0.99837063  0.34902023     0.00100
H651        H  0.70654999  0.57558821  0.33388008     0.14700
H652        H  0.60899114  0.57287367  0.28671198     0.14500
C653        C  0.61783433  0.74175463  0.30447681     0.86300
C654        C  0.61316132  0.74974996  0.36121648    -0.54000
C655        C  0.63723870  0.73837915  0.39241602     0.09200
C656        C  0.66346651  0.71993581  0.36373602     0.20100
C657        C  0.65376039  0.75094528  0.29123402    -0.54700
C658        C  0.67771326  0.73963957  0.32234961     0.09300
C659        C  0.61899827  0.70939621  0.30305850    -0.54200
C660        C  0.64278276  0.69784875  0.33420083     0.09900
H661        H  0.59324695  0.76380127  0.37502298     0.14400
H662        H  0.68292097  0.71050595  0.38887012     0.00100
H663        H  0.65972857  0.76525636  0.26017246     0.14700
H664        H  0.60216041  0.69672304  0.27981724     0.14500
In665      In  0.50951891  0.52636339  0.82749205     1.36900
C666        C  0.46000182  0.50805888  0.76761455     0.77400
O667        O  0.48042234  0.56715039  0.82255250    -0.61100
O668        O  0.53384626  0.56934499  0.82472746    -0.52000
C669        C  0.50920207  0.51265619  0.92636820     0.70000
O670        O  0.49077208  0.50052957  0.89405154    -0.46800
C671        C  0.56233408  0.49961890  0.78569633     0.74700
O672        O  0.45428319  0.51854583  0.81136884    -0.58700
O673        O  0.55276986  0.52376200  0.77107893    -0.48800
O674        O  0.49065218  0.50682736  0.75504378    -0.55100
C675        C  0.50616468  0.58250967  0.82254996     0.84900
O676        O  0.52758562  0.53185693  0.90851133    -0.57000
O677        O  0.55243525  0.99080538  0.82500581    -0.60300
In678      In  0.51121004  0.97512548  0.17832522     1.36900
C679        C  0.46247468  0.98797667  0.24594760     0.77400
O680        O  0.48162142  0.93533016  0.16748758    -0.61100
O681        O  0.53348645  0.93127187  0.18629827    -0.52000
C682        C  0.51383973  0.98966087  0.07957244     0.70000
O683        O  0.49290127  0.00038925  0.11078957    -0.46800
C684        C  0.56076172  0.00561216  0.21916812     0.74700
O685        O  0.45687341  0.98608324  0.19857476    -0.58700
O686        O  0.55931390  0.97907185  0.22404840    -0.48800
O687        O  0.49254343  0.98315123  0.25833016    -0.55100
C688        C  0.50599757  0.91906358  0.17683531     0.84900
O689        O  0.53359912  0.97166823  0.09861899    -0.57000
O690        O  0.54119764  0.51462803  0.18227157    -0.60300
In691      In  0.49311342  0.72476924  0.82564079     1.36900
C692        C  0.54181746  0.74267736  0.76289214     0.77400
O693        O  0.52338746  0.68432588  0.82357554    -0.61100
O694        O  0.47005991  0.68122594  0.82244810    -0.52000
C695        C  0.49398019  0.73989935  0.92449562     0.70000
O696        O  0.51278635  0.75108440  0.89142633    -0.46800
C697        C  0.43939316  0.75124195  0.78665446     0.74700
O698        O  0.54782349  0.73418432  0.80752898    -0.58700
O699        O  0.44741919  0.72626086  0.77386674    -0.48800
O700        O  0.51127509  0.74166400  0.75039393    -0.55100
C701        C  0.49807862  0.66850284  0.82218856     0.84900
O702        O  0.47481862  0.72101219  0.90737386    -0.57000
O703        O  0.45807230  0.76206321  0.82026700    -0.60300
In704      In  0.48721477  0.77738991  0.17460991     1.36900
C705        C  0.53373167  0.75961168  0.23969740     0.77400
O706        O  0.51855007  0.81666130  0.18037832    -0.61100
O707        O  0.46555411  0.82169829  0.17277989    -0.52000
C708        C  0.49117384  0.76279512  0.07575314     0.70000
O709        O  0.50725661  0.74993478  0.10995098    -0.46800
C710        C  0.43375239  0.75104325  0.21420906     0.74700
O711        O  0.54063460  0.76550718  0.19378547    -0.58700
O712        O  0.44122215  0.77610624  0.22638088    -0.48800
O713        O  0.50324866  0.76279506  0.25215059    -0.55100
C714        C  0.49391706  0.83339695  0.17692185     0.84900
O715        O  0.47291718  0.78291939  0.09184818    -0.57000
O716        O  0.45209961  0.74037575  0.17937676    -0.60300
C717        C  0.38085658  0.98824890  0.70751036     0.86300
C718        C  0.38479462  0.99689656  0.65118014    -0.54000
C719        C  0.36127611  0.98516708  0.61960412     0.09200
C720        C  0.33588781  0.96600028  0.64740530     0.20100
C721        C  0.34454333  0.99663419  0.72155609    -0.54700
C722        C  0.32109516  0.98500515  0.69007159     0.09300
C723        C  0.38115785  0.95579703  0.70691681    -0.54200
C724        C  0.35765006  0.94403085  0.67542720     0.09900
H725        H  0.39954894  0.51388285  0.63657208     0.14400
H726        H  0.31658287  0.95682261  0.62168275     0.00100
H727        H  0.33046287  0.51162631  0.74746374     0.14700
H728        H  0.39824992  0.94327273  0.73001342     0.14500
C729        C  0.34497670  0.82122007  0.66204946     0.86300
C730        C  0.35386037  0.81025530  0.60825908    -0.54000
C731        C  0.35377511  0.78153591  0.60339782     0.09200
C732        C  0.34534804  0.76614350  0.65360255     0.20100
C733        C  0.31074055  0.80748568  0.67467016    -0.54700
C734        C  0.31056889  0.77859313  0.66972379     0.09300
C735        C  0.36986847  0.80630861  0.69787889    -0.54200
C736        C  0.37044877  0.77747605  0.69352599     0.09900
H737        H  0.35859705  0.82419794  0.57616769     0.14400
H738        H  0.34609347  0.74277367  0.64999751     0.00100
H739        H  0.28826116  0.81938485  0.68479723     0.14700
H740        H  0.38627743  0.81800272  0.72322518     0.14500
C741        C  0.38114294  0.51117934  0.31169278     0.86300
C742        C  0.38569927  0.50259378  0.36771867    -0.54000
C743        C  0.36279939  0.51489486  0.40057894     0.09200
C744        C  0.33738388  0.53476075  0.37391401     0.20100
C745        C  0.34454969  0.50368230  0.29972150    -0.54700
C746        C  0.32159260  0.51577060  0.33248256     0.09300
C747        C  0.38208304  0.54351572  0.31188179    -0.54200
C748        C  0.35902550  0.55622974  0.34395035     0.09900
H749        H  0.40136354  0.98302101  0.38233661     0.14400
H750        H  0.31832568  0.54437180  0.40020922     0.00100
H751        H  0.33327803  0.98773536  0.27200303     0.14700
H752        H  0.39971201  0.55521684  0.28826159     0.14500
C753        C  0.35056564  0.68010041  0.35403223     0.86300
C754        C  0.36000881  0.69332733  0.40602390    -0.54000
C755        C  0.35696117  0.72222295  0.40818525     0.09200
C756        C  0.34587470  0.73523441  0.35683724     0.20100
C757        C  0.31498286  0.69155648  0.34345156    -0.54700
C758        C  0.31239441  0.72037957  0.34521101     0.09300
C759        C  0.37386181  0.69522741  0.31562120    -0.54200
C760        C  0.37113347  0.72403409  0.31639560     0.09900
H761        H  0.36662678  0.68072709  0.43897265     0.14400
H762        H  0.34401409  0.75864110  0.35726990     0.00100
H763        H  0.29343694  0.67793926  0.33704555     0.14700
H764        H  0.39232251  0.68420085  0.29192259     0.12900
C765        C  0.11408846  0.51002434  0.69506609     0.86300
C766        C  0.10929892  0.50186950  0.63865669    -0.54000
C767        C  0.13271025  0.51336106  0.60636789     0.09200
C768        C  0.15890924  0.53187732  0.63387175     0.20100
C769        C  0.15038166  0.50103742  0.70703407    -0.54700
C770        C  0.17395684  0.51238042  0.67492921     0.09300
C771        C  0.11452838  0.54241503  0.69611548    -0.54200
C772        C  0.13801103  0.55397236  0.66411366     0.09900
H773        H  0.09614615  0.98387248  0.65053161     0.14400
H774        H  0.17802530  0.54131044  0.60796360     0.00100
H775        H  0.16313729  0.98758721  0.76212718     0.14700
H776        H  0.09765709  0.55507737  0.72007683     0.14500
C777        C  0.14759145  0.67685421  0.65200610     0.86300
C778        C  0.13960604  0.69124936  0.60063351    -0.54000
C779        C  0.14146112  0.72021862  0.60192106     0.09200
C780        C  0.15086289  0.73197276  0.65521961     0.20100
C781        C  0.18234192  0.68816961  0.66664895    -0.54700
C782        C  0.18440121  0.71694855  0.66772013     0.09300
C783        C  0.12260513  0.69085286  0.68983844    -0.54200
C784        C  0.12427925  0.71971743  0.69202924     0.09900
H785        H  0.13369564  0.67972097  0.56605406     0.14400
H786        H  0.15219649  0.75533336  0.65765223     0.00100
H787        H  0.20395060  0.67445256  0.67329907     0.14700
H788        H  0.10462903  0.67853940  0.71153638     0.14500
C789        C  0.11649975  0.99284863  0.32442648     0.86300
C790        C  0.11187971  0.99790512  0.38194099    -0.54000
C791        C  0.13621095  0.98569564  0.41117679     0.09200
C792        C  0.16295307  0.96923588  0.37988403     0.20100
C793        C  0.15226858  0.00346817  0.31237609    -0.54700
C794        C  0.17668560  0.99096303  0.34153171     0.09300
C795        C  0.11842601  0.96059438  0.31839741    -0.54200
C796        C  0.14282694  0.94802218  0.34729491     0.09900
H797        H  0.09346629  0.51019362  0.36598527     0.14400
H798        H  0.18281671  0.95938856  0.40368945     0.00100
H799        H  0.16588396  0.51133891  0.26013596     0.14700
H800        H  0.10117640  0.94876307  0.29442412     0.14500
C801        C  0.14981110  0.82476804  0.35794225     0.86300
C802        C  0.13930054  0.81339167  0.41077504    -0.54000
C803        C  0.14064518  0.78464382  0.41446680     0.09200
C804        C  0.15148403  0.76970501  0.36446241     0.20100
C805        C  0.18478933  0.81175687  0.34766507    -0.54700
C806        C  0.18603079  0.78289605  0.35132227     0.09300
C807        C  0.12599747  0.80952079  0.32065232    -0.54200
C808        C  0.12702979  0.78064777  0.32355010     0.09900
H809        H  0.13206061  0.82676520  0.44300876     0.14400
H810        H  0.15183047  0.74631097  0.36702124     0.00100
H811        H  0.20686780  0.82464701  0.34055110     0.14700
H812        H  0.10853744  0.82070620  0.29624261     0.14500
In813      In  0.98009080  0.97459532  0.82798843     1.36900
C814        C  0.03255276  0.99102476  0.77246476     0.77400
O815        O  0.01056958  0.93447100  0.83097655    -0.61100
O816        O  0.95751426  0.93074297  0.82375415    -0.52000
C817        C  0.97605241  0.98991068  0.92586069     0.70000
O818        O  0.99702951  0.00034821  0.89510089    -0.46800
C819        C  0.93139318  0.00418425  0.78203862     0.74700
O820        O  0.03527105  0.98483949  0.81907594    -0.58700
O821        O  0.93778411  0.97869780  0.77036205    -0.48800
O822        O  0.00343077  0.98827839  0.75437928    -0.55100
C823        C  0.98565026  0.91833791  0.82761406     0.84900
O824        O  0.95670325  0.97167703  0.90682155    -0.57000
O825        O  0.95170768  0.51418203  0.81604200    -0.60300
In826      In  0.98976333  0.52531491  0.17335041     1.36900
C827        C  0.03808630  0.50448811  0.23308273     0.77400
O828        O  0.02238304  0.56411421  0.16987933    -0.61100
O829        O  0.96997103  0.57007571  0.18283880    -0.52000
C830        C  0.98575095  0.51208861  0.07422507     0.70000
O831        O  0.00706042  0.50089927  0.10346849    -0.46800
C832        C  0.93687341  0.49897081  0.21440493     0.74700
O833        O  0.04386469  0.51194574  0.18764416    -0.58700
O834        O  0.94605771  0.52316933  0.22951175    -0.48800
O835        O  0.00794146  0.50744158  0.24744096    -0.55100
C836        C  0.99848001  0.58129867  0.17708428     0.84900
O837        O  0.96657510  0.53012863  0.09531208    -0.57000
O838        O  0.97782249  0.98677167  0.20792765    -0.60300
In839      In  0.00614970  0.77657059  0.83367132     1.36900
C840        C  0.95102924  0.75988579  0.78500867     0.77400
O841        O  0.97618995  0.81638063  0.84900158    -0.61100
O842        O  0.02550956  0.82055410  0.81807886    -0.52000
C843        C  0.01657772  0.76395009  0.93130531     0.70000
O844        O  0.99101545  0.75615702  0.90707069    -0.46800
C845        C  0.05318103  0.74595988  0.78385316     0.74700
O846        O  0.95503573  0.75644041  0.83222914    -0.58700
O847        O  0.05110236  0.77245166  0.77955429    -0.48800
O848        O  0.97513948  0.77211495  0.76259692    -0.55100
C849        C  0.99871630  0.83268522  0.83278400     0.84900
O850        O  0.03712929  0.77868336  0.90609550    -0.57000
O851        O  0.03162339  0.73545147  0.81359527    -0.60300
In852      In  0.01506171  0.72343682  0.17690831     1.36900
C853        C  0.96325282  0.74176257  0.23290497     0.77400
O854        O  0.98544310  0.68308397  0.17164841    -0.61100
O855        O  0.03825247  0.67964182  0.18236907    -0.52000
C856        C  0.01988930  0.73955840  0.07987430     0.70000
O857        O  0.99785938  0.74926855  0.11026209    -0.46800
C858        C  0.06411636  0.75203839  0.22342489     0.74700
O859        O  0.96004935  0.73520345  0.18638133    -0.58700
O860        O  0.05651941  0.72710208  0.23593491    -0.48800
O861        O  0.99231781  0.73810913  0.25066200    -0.55100
C862        C  0.01053989  0.66706492  0.17727927     0.84900
O863        O  0.03944551  0.72130293  0.09861523    -0.57000
O864        O  0.04764447  0.76161382  0.18626414    -0.60300
C865        C  0.84580571  0.57419730  0.64608959     0.86300
C866        C  0.85506488  0.56049818  0.59430278    -0.54000
C867        C  0.85320907  0.53155686  0.59335685     0.09200
C868        C  0.84283827  0.51906122  0.64558487     0.20100
C869        C  0.81056391  0.56241013  0.65894325    -0.54700
C870        C  0.80896597  0.53360585  0.65805218     0.09300
C871        C  0.86920801  0.55992325  0.68494697    -0.54200
C872        C  0.86788066  0.53104567  0.68460480     0.09900
H873        H  0.86055929  0.57308610  0.56075877     0.14400
H874        H  0.84413089  0.99886367  0.63944397     0.00100
H875        H  0.78835724  0.57508631  0.66741852     0.14700
H876        H  0.88596352  0.57189754  0.70934993     0.14500
C877        C  0.88828084  0.74107938  0.67844975     0.86300
C878        C  0.89042452  0.74845023  0.62175120    -0.54000
C879        C  0.86560612  0.73681316  0.59266945     0.09200
C880        C  0.84072064  0.71863258  0.62352769     0.20100
C881        C  0.85258327  0.75040406  0.69497349    -0.54700
C882        C  0.82772667  0.73851682  0.66613117     0.09300
C883        C  0.88808739  0.70866039  0.67956694    -0.54200
C884        C  0.86313980  0.69676378  0.65088635     0.09900
H885        H  0.90953029  0.76241179  0.60622856     0.14400
H886        H  0.82044000  0.70921363  0.59996714     0.00100
H887        H  0.84747655  0.76550119  0.72561067     0.14700
H888        H  0.90598538  0.69629239  0.70151134     0.14500
C889        C  0.84755307  0.93095227  0.34098045     0.86300
C890        C  0.85608889  0.94292206  0.39407377    -0.54000
C891        C  0.85637510  0.97179615  0.39682415     0.09200
C892        C  0.84869996  0.98617781  0.34559249     0.20100
C893        C  0.81373375  0.94522028  0.32734112    -0.54700
C894        C  0.81400533  0.97411405  0.33042477     0.09300
C895        C  0.87306237  0.94454312  0.30413423    -0.54200
C896        C  0.87427358  0.97341709  0.30695509     0.09900
H897        H  0.86013271  0.92961203  0.42719818     0.14400
H898        H  0.84505935  0.50639137  0.35568068     0.00100
H899        H  0.79103425  0.93378338  0.31810990     0.14700
H900        H  0.88849170  0.93208625  0.27784229     0.14500
C901        C  0.87723969  0.76369893  0.28956471     0.86300
C902        C  0.88155769  0.75345877  0.34452788    -0.54000
C903        C  0.85917244  0.76509921  0.37864093     0.09200
C904        C  0.83390329  0.78576548  0.35413661     0.20100
C905        C  0.84053898  0.75680653  0.27688443    -0.54700
C906        C  0.81792656  0.76828922  0.31099658     0.09300
C907        C  0.87866222  0.79602741  0.29290463    -0.54200
C908        C  0.85601306  0.80775026  0.32664678     0.09900
H909        H  0.90052593  0.73794924  0.35525679     0.14400
H910        H  0.81539016  0.79506798  0.38171155     0.00100
H911        H  0.83315299  0.74309284  0.24546674     0.14700
H912        H  0.89592081  0.80853643  0.27000080     0.14500
C913        C  0.88025247  0.88471686  0.34058451    -0.13600
C914        C  0.84868360  0.89858289  0.33995867     0.08600
C915        C  0.81937204  0.88173310  0.34041782    -0.13600
C916        C  0.82175510  0.85218962  0.33797078    -0.13600
C917        C  0.85333873  0.83877227  0.33470683     0.08600
C918        C  0.88256662  0.85529161  0.33701119    -0.13600
H919        H  0.90335038  0.89676032  0.34265903     0.12600
H920        H  0.79443849  0.89090201  0.34332538     0.12600
H921        H  0.79883876  0.83989978  0.33725146     0.12600
H922        H  0.90730513  0.84540690  0.33599099     0.12600
C923        C  0.89278152  0.74583301  0.50825679    -0.13600
C924        C  0.86313737  0.74247661  0.53722922     0.08600
C925        C  0.83170994  0.74635777  0.51362290    -0.13600
C926        C  0.83013773  0.75413994  0.46202668    -0.13600
C927        C  0.85997203  0.75787517  0.43354954     0.08600
C928        C  0.89122145  0.75363673  0.45723287    -0.13600
H929        H  0.91736081  0.74255174  0.52510939     0.12600
H930        H  0.80848075  0.74414147  0.53528330     0.12600
H931        H  0.80573476  0.75694096  0.44432338     0.12600
H932        H  0.91463801  0.75661142  0.43636869     0.12600
C933        C  0.84022076  0.48800472  0.54124644    -0.13600
C934        C  0.85634243  0.51435760  0.54522959     0.08600
C935        C  0.87365877  0.52465276  0.50191897    -0.13600
C936        C  0.87750477  0.01212371  0.45087777    -0.13600
C937        C  0.85819076  0.98749520  0.44610255     0.08600
C938        C  0.83885359  0.97855521  0.48807028    -0.13600
H939        H  0.82554330  0.47954621  0.57251246     0.12600
H940        H  0.88687508  0.54456547  0.50331113     0.12600
H941        H  0.89249264  0.01949358  0.41887117     0.12600
H942        H  0.82293932  0.96010357  0.48490821     0.12600
C943        C  0.82138315  0.62500599  0.64498217    -0.13600
C944        C  0.84936811  0.60636364  0.64508676     0.08600
C945        C  0.88190283  0.61813533  0.64286658    -0.13600
C946        C  0.88640105  0.64739260  0.64459213    -0.13600
C947        C  0.85843205  0.66574530  0.64683630     0.08600
C948        C  0.82593456  0.65429174  0.64579173    -0.13600
H949        H  0.79579635  0.61749794  0.64359320     0.12600
H950        H  0.90402256  0.60458031  0.64080006     0.12600
H951        H  0.91181068  0.65567206  0.64384356     0.12600
H952        H  0.80391197  0.66795427  0.64674329     0.12600
C953        C  0.90324143  0.75124177  0.25344189    -0.16600
C954        C  0.93607359  0.75361442  0.26469571    -0.31800
H955        H  0.89537827  0.73986942  0.21934066     0.12400
H956        H  0.94342520  0.76418035  0.29991865     0.12900
C957        C  0.91667405  0.75411783  0.70829287    -0.16600
C958        C  0.92081159  0.74971429  0.75839137    -0.31800
H959        H  0.93526687  0.76654787  0.68769290     0.12400
H960        H  0.90239864  0.73745096  0.77962141     0.12900
C961        C  0.02142412  0.75628126  0.98377221    -0.13500
C962        C  0.02215875  0.74866107  0.02768095    -0.15000
C963        C  0.92647688  0.98046948  0.25476864    -0.16600
C964        C  0.89803439  0.99110482  0.27635035    -0.31800
H965        H  0.90464552  0.46185758  0.22233022     0.12400
H966        H  0.89256037  0.01355490  0.27323119     0.12900
C967        C  0.00745240  0.63674550  0.17792525    -0.13500
C968        C  0.00346291  0.61143230  0.17804246    -0.15000
C969        C  0.90669458  0.52157654  0.75730095    -0.16600
C970        C  0.88962048  0.51235553  0.71620565    -0.31800
H971        H  0.90396926  0.54325584  0.77050918     0.12400
H972        H  0.89354871  0.99213824  0.69922438     0.12900
C973        C  0.98941277  0.88807837  0.82878767    -0.13500
C974        C  0.99386034  0.86282064  0.83064718    -0.15000
C975        C  0.98339274  0.50464517  0.02086606    -0.13500
C976        C  0.97498091  0.99803197  0.97887702    -0.15000
C977        C  0.08897908  0.76965992  0.25055421    -0.16600
C978        C  0.10505493  0.76136842  0.29318872    -0.31800
H979        H  0.09296809  0.79067817  0.23548601     0.12400
H980        H  0.10176193  0.73992375  0.30685058     0.12900
C981        C  0.15752299  0.90341064  0.39402258    -0.13600
C982        C  0.14775309  0.91682990  0.34872561     0.08600
C983        C  0.14155002  0.90013070  0.30519731    -0.13600
C984        C  0.14302420  0.87065835  0.30772960    -0.13600
C985        C  0.15000970  0.85700460  0.35421977     0.08600
C986        C  0.15913722  0.87389563  0.39651227    -0.13600
H987        H  0.16288920  0.91559771  0.42816076     0.12600
H988        H  0.13544711  0.90985652  0.26900079     0.12600
H989        H  0.13858663  0.85870178  0.27305723     0.12600
H990        H  0.16702185  0.86438202  0.43201197     0.12600
C991        C  0.08846235  0.00628693  0.29423571    -0.16600
C992        C  0.06387961  0.49316598  0.26756288    -0.31800
H993        H  0.10564019  0.51133250  0.23010856     0.12400
H994        H  0.05523147  0.48130471  0.30057392     0.12900
C995        C  0.12009847  0.72842068  0.51211662    -0.13600
C996        C  0.13777771  0.73815520  0.55536297     0.08600
C997        C  0.15389136  0.76452889  0.55253725    -0.13600
C998        C  0.15327379  0.78021206  0.50749820    -0.13600
C999        C  0.13715651  0.76969155  0.46379340     0.08600
C1000       C  0.12025636  0.74383353  0.46660049    -0.13600
H1001       H  0.10652441  0.70867477  0.51287399     0.12600
H1002       H  0.16850503  0.77267005  0.58402107     0.12600
H1003       H  0.16700747  0.79991610  0.50603687     0.12600
H1004       H  0.10739612  0.73544792  0.43343739     0.12600
C1005       C  0.10118150  0.73817847  0.72330335    -0.16600
C1006       C  0.07799957  0.72799715  0.75625237    -0.31800
H1007       H  0.10279711  0.76087388  0.71782521     0.12400
H1008       H  0.07618506  0.70552035  0.76313186     0.12900
C1009       C  0.10355984  0.50410704  0.52310166    -0.13600
C1010       C  0.13362078  0.50719874  0.55068654     0.08600
C1011       C  0.16846964  0.00113131  0.54431574    -0.13600
C1012       C  0.16800234  0.99473352  0.49197883    -0.13600
C1013       C  0.13726665  0.98979623  0.46725411     0.08600
C1014       C  0.10451260  0.49730631  0.47100372    -0.13600
H1015       H  0.07928302  0.50703640  0.54178244     0.12600
H1016       H  0.19251376  0.00481251  0.56250186     0.12600
H1017       H  0.19152758  0.99447560  0.47062220     0.12600
H1018       H  0.08093935  0.49471056  0.45090210     0.12600
C1019       C  0.14810019  0.62741763  0.60892200    -0.13600
C1020       C  0.14669725  0.64454076  0.65339389     0.08600
C1021       C  0.14584809  0.63101257  0.70123268    -0.13600
C1022       C  0.14322046  0.60168929  0.70455639    -0.13600
C1023       C  0.14285148  0.58490849  0.66017903     0.08600
C1024       C  0.14631822  0.59789844  0.61239765    -0.13600
H1025       H  0.15097081  0.63640131  0.57133084     0.12600
H1026       H  0.14645192  0.64325893  0.73637106     0.12600
H1027       H  0.14156384  0.59206695  0.74196661     0.12600
H1028       H  0.14670882  0.58526986  0.57765987     0.12600
C1029       C  0.06045308  0.00140313  0.74098845    -0.16600
C1030       C  0.08832803  0.49766737  0.73117677    -0.31800
H1031       H  0.05379132  0.01211044  0.70577754     0.12400
H1032       H  0.09696849  0.48641462  0.76480123     0.12900
C1033       C  0.25215049  0.72569419  0.37285524    -0.13600
C1034       C  0.27964685  0.73563477  0.34416941     0.08600
C1035       C  0.27630652  0.76105885  0.31740134    -0.13600
C1036       C  0.24577681  0.77612548  0.31872957    -0.13600
C1037       C  0.21817053  0.76633879  0.34777583     0.08600
C1038       C  0.22187413  0.74098059  0.37501624    -0.13600
H1039       H  0.25445046  0.70653223  0.39505112     0.12600
H1040       H  0.29725248  0.76915700  0.29516096     0.12600
H1041       H  0.24386196  0.79538354  0.29681683     0.12600
H1042       H  0.20180691  0.73320471  0.39930023     0.12600
C1043       C  0.27130129  0.98116615  0.33723010    -0.13600
C1044       C  0.28544366  0.50861640  0.33093113     0.08600
C1045       C  0.26071215  0.52994545  0.33142145    -0.13600
C1046       C  0.22655013  0.52287386  0.32836344    -0.13600
C1047       C  0.21308234  0.99756504  0.33771727     0.08600
C1048       C  0.23682119  0.97544826  0.33878795    -0.13600
H1049       H  0.28915775  0.96373371  0.33823858     0.12600
H1050       H  0.26787985  0.55198728  0.33327134     0.12600
H1051       H  0.20767070  0.53954839  0.32854063     0.12600
H1052       H  0.22867138  0.95365859  0.34048019     0.12600
C1053       C  0.34425057  0.60148463  0.39179970    -0.13600
C1054       C  0.35495213  0.58764331  0.34671938     0.08600
C1055       C  0.36200778  0.60412899  0.30344353    -0.13600
C1056       C  0.36023192  0.63356753  0.30576561    -0.13600
C1057       C  0.35204404  0.64772753  0.35180285     0.08600
C1058       C  0.34249779  0.63114401  0.39417185    -0.13600
H1059       H  0.33779778  0.58953054  0.42554371     0.12600
H1060       H  0.36849193  0.59429653  0.26713731     0.12600
H1061       H  0.36490701  0.64506286  0.27086241     0.12600
H1062       H  0.33380104  0.64102493  0.42937237     0.12600
C1063       C  0.27574690  0.73655496  0.64442808    -0.13600
C1064       C  0.27887773  0.76166941  0.67304829     0.08600
C1065       C  0.25068623  0.77135401  0.70168282    -0.13600
C1066       C  0.22002090  0.75679805  0.70032238    -0.13600
C1067       C  0.21712862  0.73185274  0.67153045     0.08600
C1068       C  0.24537517  0.72173937  0.64402431    -0.13600
H1069       H  0.29622277  0.72874385  0.62054656     0.12600
H1070       H  0.25208602  0.79029415  0.72496965     0.12600
H1071       H  0.19860535  0.76494677  0.72196435     0.12600
H1072       H  0.24360036  0.70286913  0.62051077     0.12600
C1073       C  0.33834201  0.77756742  0.51104094    -0.13600
C1074       C  0.35646570  0.76713417  0.55290408     0.08600
C1075       C  0.37600619  0.74254059  0.54656277    -0.13600
C1076       C  0.37745926  0.72862212  0.49906674    -0.13600
C1077       C  0.35863941  0.73860711  0.45725876     0.08600
C1078       C  0.33917697  0.76338211  0.46397507    -0.13600
H1079       H  0.32250083  0.79621504  0.51524257     0.12600
H1080       H  0.39030045  0.73419805  0.57827944     0.12600
H1081       H  0.39314177  0.70989397  0.49539464     0.12600
H1082       H  0.32341718  0.77138609  0.43369030     0.12600
C1083       C  0.26176593  0.97121024  0.70739573    -0.13600
C1084       C  0.28510002  0.99204213  0.69424589     0.08600
C1085       C  0.26886594  0.52056371  0.67530739    -0.13600
C1086       C  0.23445166  0.52699872  0.67229667    -0.13600
C1087       C  0.21035745  0.50567886  0.67853992     0.08600
C1088       C  0.22740257  0.97779632  0.70986644    -0.13600
H1089       H  0.27013996  0.94992857  0.71577009     0.12600
H1090       H  0.28717682  0.53721816  0.67006551     0.12600
H1091       H  0.22665496  0.54863760  0.66553992     0.12600
H1092       H  0.20965034  0.96125306  0.71907773     0.12600
C1093       C  0.35366310  0.52214974  0.54463244    -0.13600
C1094       C  0.35950034  0.99171062  0.56437541     0.08600
C1095       C  0.36085882  0.96999086  0.52761461    -0.13600
C1096       C  0.36123835  0.97646209  0.47534855    -0.13600
C1097       C  0.36098716  0.50773210  0.45573922     0.08600
C1098       C  0.35474739  0.52887620  0.49259693    -0.13600
H1099       H  0.34941246  0.53883277  0.57260459     0.12600
H1100       H  0.36255170  0.94811305  0.53938480     0.12600
H1101       H  0.36290642  0.95937900  0.44761779     0.12600
H1102       H  0.35149917  0.55067362  0.48128865     0.12600
C1103       C  0.38241804  0.89547334  0.66710235    -0.13600
C1104       C  0.35379406  0.91301365  0.66964200     0.08600
C1105       C  0.32173183  0.90071523  0.66736683    -0.13600
C1106       C  0.31831716  0.87127226  0.66523113    -0.13600
C1107       C  0.34705104  0.85345312  0.66478982     0.08600
C1108       C  0.37908286  0.86618812  0.66366756    -0.13600
H1109       H  0.40748551  0.90445583  0.66723404     0.12600
H1110       H  0.29924527  0.91380591  0.66815540     0.12600
H1111       H  0.29310795  0.86293887  0.66291996     0.12600
H1112       H  0.40177179  0.85336340  0.66076362     0.12600
C1113       C  0.40753937  0.73434781  0.24055243    -0.16600
C1114       C  0.39234606  0.74304264  0.28431600    -0.31800
H1115       H  0.40286998  0.71329461  0.22557373     0.12400
H1116       H  0.39638969  0.76444055  0.29819543     0.12900
C1117       C  0.39441197  0.75878026  0.72183034    -0.16600
C1118       C  0.41164406  0.76759997  0.76326147    -0.31800
H1119       H  0.39877169  0.73756452  0.70692158     0.12400
H1120       H  0.40684554  0.78840313  0.77948295     0.12900
C1121       C  0.49407449  0.74819358  0.97768476    -0.13500
C1122       C  0.49320372  0.75494178  0.02240501    -0.15000
C1123       C  0.40619856  0.49807774  0.27459412    -0.16600
C1124       C  0.43689849  0.99648541  0.28434148    -0.31800
H1125       H  0.39693942  0.48671617  0.24129747     0.12400
H1126       H  0.44595870  0.00575576  0.31977866     0.12900
C1127       C  0.50231799  0.88883695  0.17703563    -0.13500
C1128       C  0.49816592  0.86356987  0.17720110    -0.15000
C1129       C  0.40673981  0.00081125  0.74299220    -0.16600
C1130       C  0.43368875  0.49761897  0.73316769    -0.31800
H1131       H  0.39190630  0.51478698  0.77353683     0.12400
H1132       H  0.44196248  0.48562703  0.69966469     0.12900
C1133       C  0.50387248  0.61280326  0.82094037    -0.13500
C1134       C  0.50110419  0.63821990  0.82089761    -0.15000
C1135       C  0.50952221  0.50496487  0.97952547    -0.13500
C1136       C  0.51495121  0.99728459  0.02615367    -0.15000
C1137       C  0.73848900  0.72598151  0.32439303    -0.13600
C1138       C  0.71369112  0.74690034  0.31799071     0.08600
C1139       C  0.72339138  0.77489158  0.30817854    -0.13600
C1140       C  0.75747970  0.78188385  0.30536292    -0.13600
C1141       C  0.78211585  0.76089507  0.31136955     0.08600
C1142       C  0.77256227  0.73291748  0.32070446    -0.13600
H1143       H  0.73151888  0.70427545  0.33174178     0.12600
H1144       H  0.70463247  0.79144392  0.30380850     0.12600
H1145       H  0.76462546  0.80356990  0.29838310     0.12600
H1146       H  0.79151530  0.71660843  0.32607449     0.12600
C1147       C  0.59186953  0.75401388  0.26910496    -0.16600
C1148       C  0.55887304  0.74945191  0.27620744    -0.31800
H1149       H  0.60026988  0.76632224  0.23647044     0.12400
H1150       H  0.55014807  0.73817667  0.30983728     0.12900
C1151       C  0.74739076  0.52793538  0.31284068    -0.13600
C1152       C  0.71832264  0.51705599  0.33696092     0.08600
C1153       C  0.72418951  0.99733188  0.29985156    -0.13600
C1154       C  0.75495332  0.98260745  0.29777587    -0.13600
C1155       C  0.78248202  0.99140131  0.32766041     0.08600
C1156       C  0.77790796  0.51271280  0.31297711    -0.13600
H1157       H  0.74666943  0.54813126  0.29370932     0.12600
H1158       H  0.70318134  0.98994015  0.27724326     0.12600
H1159       H  0.75701084  0.96418593  0.27313375     0.12600
H1160       H  0.79993346  0.52153760  0.29439898     0.12600
C1161       C  0.64945964  0.62035394  0.29895659    -0.13600
C1162       C  0.64931262  0.60722775  0.34718209     0.08600
C1163       C  0.65101013  0.62470925  0.39114222    -0.13600
C1164       C  0.65006067  0.65422573  0.38688452    -0.13600
C1165       C  0.64742666  0.66689164  0.33877647     0.08600
C1166       C  0.64778953  0.64973514  0.29483944    -0.13600
H1167       H  0.65013972  0.60781699  0.26414668     0.12600
H1168       H  0.65342706  0.61594478  0.42895779     0.12600
H1169       H  0.65040312  0.66713394  0.42127953     0.12600
H1170       H  0.64672743  0.65910670  0.25718617     0.12600
C1171       C  0.60560511  0.51321249  0.27870362    -0.16600
C1172       C  0.58746408  0.52230573  0.23866919    -0.31800
H1173       H  0.60563703  0.99208263  0.29248059     0.12400
H1174       H  0.58915075  0.54407596  0.22626322     0.12900
C1175       C  0.76849128  0.72658905  0.68968348    -0.13600
C1176       C  0.79185515  0.74626669  0.67159167     0.08600
C1177       C  0.78066642  0.77294679  0.65591320    -0.13600
C1178       C  0.74632836  0.77984314  0.65788897    -0.13600
C1179       C  0.72264912  0.76032886  0.67637255     0.08600
C1180       C  0.73418099  0.73363130  0.69250997    -0.13600
H1181       H  0.77680056  0.70578189  0.70143516     0.12600
H1182       H  0.79846635  0.78819519  0.64110302     0.12600
H1183       H  0.73848620  0.80042211  0.64478847     0.12600
H1184       H  0.71660667  0.71782245  0.70578456     0.12600
C1185       C  0.67192833  0.75502381  0.52407857    -0.13600
C1186       C  0.64222723  0.75721290  0.55354449     0.08600
C1187       C  0.61096283  0.75306776  0.52968558    -0.13600
C1188       C  0.60936979  0.74691880  0.47747720    -0.13600
C1189       C  0.63900771  0.74460160  0.44800734     0.08600
C1190       C  0.67033739  0.74862862  0.47177871    -0.13600
H1191       H  0.69637545  0.75788177  0.54153075     0.12600
H1192       H  0.58760348  0.75499706  0.55123941     0.12600
H1193       H  0.58492115  0.74374287  0.46022114     0.12600
H1194       H  0.69358512  0.74732334  0.44979554     0.12600
C1195       C  0.60103621  0.75091977  0.73600795    -0.16600
C1196       C  0.56773070  0.75355473  0.72771667    -0.31800
H1197       H  0.60999482  0.73986542  0.76963606     0.12400
H1198       H  0.55906052  0.76399712  0.69327336     0.12900
C1199       C  0.71904203  0.51269473  0.63075088    -0.13600
C1200       C  0.71946265  0.99042140  0.65924372     0.08600
C1201       C  0.74747194  0.98191700  0.68835265    -0.13600
C1202       C  0.77750759  0.99727496  0.68671691    -0.13600
C1203       C  0.77658695  0.51827351  0.66047548     0.08600
C1204       C  0.74899432  0.52798969  0.63205679    -0.13600
H1205       H  0.69896489  0.52020902  0.60644924     0.12600
H1206       H  0.74637882  0.96326073  0.71201431     0.12600
H1207       H  0.79896661  0.99006775  0.70861508     0.12600
H1208       H  0.75102167  0.54693829  0.60922656     0.12600
C1209       C  0.62565245  0.01130010  0.53958615    -0.13600
C1210       C  0.64318514  0.98549709  0.54225588     0.08600
C1211       C  0.66088740  0.97562589  0.49892497    -0.13600
C1212       C  0.64114683  0.48632876  0.45091369    -0.13600
C1213       C  0.63418251  0.51559210  0.45047252     0.08600
C1214       C  0.62423854  0.52839752  0.49729989    -0.13600
H1215       H  0.61184395  0.01936726  0.57256849     0.12600
H1216       H  0.67547212  0.95619887  0.50039634     0.12600
H1217       H  0.64745976  0.47460793  0.41676740     0.12600
H1218       H  0.61710127  0.55041512  0.49973139     0.12600
C1219       C  0.62272296  0.88370601  0.64472883    -0.13600
C1220       C  0.65422946  0.89725139  0.64788257     0.08600
C1221       C  0.68346132  0.88011926  0.65061299    -0.13600
C1222       C  0.68098885  0.85069037  0.65324101    -0.13600
C1223       C  0.64943804  0.83758180  0.65337857     0.08600
C1224       C  0.62030220  0.85430587  0.64831767    -0.13600
H1225       H  0.59976262  0.89602416  0.64072390     0.12600
H1226       H  0.70847221  0.88889200  0.65043785     0.12600
H1227       H  0.70378750  0.83828258  0.65697960     0.12600
H1228       H  0.59562718  0.84460912  0.64735422     0.12600
C1229       C  0.60593884  0.99078289  0.71259592    -0.16600
C1230       C  0.59284388  0.98283497  0.75785285    -0.31800
H1231       H  0.59956490  0.01142465  0.69731653     0.12400
H1232       H  0.59535157  0.46259065  0.77625081     0.12900
loop_ 
_geom_bond_atom_site_label_1 
_geom_bond_atom_site_label_2 
_geom_bond_distance 
_geom_bond_site_symmetry_2 
_ccdc_geom_bond_type 
C1            C2   1.534       .  S
C1            C7   1.537       .  S
C1            C5   1.544       .  S
C1          C604   1.531       .  S
C2            H9   1.085       .  S
C2            C3   1.369       .  D
C3            C4   1.542       .  S
C3          C594   1.494       .  S
C4            C8   1.537       .  S
C4            C6   1.541       .  S
C4          H626   1.107       .  S
C5           H11   1.081       .  S
C5            C6   1.368       .  D
C6          C584   1.490       .  S
C7           H12   1.084       .  S
C7            C8   1.368       .  D
C8          C613   1.487       .  S
H10         C620   1.109   1_545  S
C13          C14   1.528       .  S
C13          C19   1.535       .  S
C13          C17   1.537       .  S
C13         C579   1.512       .  S
C14          H21   1.086       .  S
C14          C15   1.364       .  D
C15          C16   1.543       .  S
C15         C570   1.483       .  S
C16          C20   1.546       .  S
C16          C18   1.544       .  S
C16          H22   1.109       .  S
C17          H23   1.086       .  S
C17          C18   1.370       .  D
C18         C563   1.486       .  S
C19          H24   1.086       .  S
C19          C20   1.368       .  D
C20         C607   1.492       .  S
C25          C26   1.546       .  S
C25          C31   1.538       .  S
C25          C29   1.533       .  S
C25         C546   1.528       .  S
C26          H33   1.081       .  S
C26          C27   1.374       .  D
C27          C28   1.546       .  S
C27         C597   1.495       .  S
C28          C32   1.539       .  S
C28          C30   1.536       .  S
C28         H650   1.108   1_545  S
C29          H35   1.087       .  S
C29          C30   1.362       .  D
C30         C536   1.478       .  S
C31          H36   1.084       .  S
C31          C32   1.367       .  D
C32         C555   1.494       .  S
H34         C644   1.101       .  S
C37          C38   1.535       .  S
C37          C43   1.530       .  S
C37          C41   1.530       .  S
C37         C531   1.506       .  S
C38          H45   1.086       .  S
C38          C39   1.366       .  D
C39          C40   1.539       .  S
C39         C573   1.483       .  S
C40          C44   1.539       .  S
C40          C42   1.543       .  S
C40          H46   1.110       .  S
C41          H47   1.086       .  S
C41          C42   1.369       .  D
C42         C522   1.475       .  S
C43          H48   1.087       .  S
C43          C44   1.361       .  D
C44         C549   1.477       .  S
In49         O51   2.251       .  S
In49         O52   2.269       .  S
In49         O60   2.261       .  S
In49         O54   2.261       .  S
In49         O56   2.269       .  S
In49         O57   2.253       .  S
In49         O58   2.243       .  S
In49        O677   2.246   1_545  S
C50         C514   1.470   1_545  S
C50          O56   1.262       .  A
C50          O58   1.254       .  A
O51          C59   1.256       .  A
O52          C59   1.259       .  A
C53          O60   1.259       .  A
C53          O54   1.260       .  A
C53         C519   1.445       .  S
C55        C1230   1.475       .  S
C55          O57   1.264   1_565  A
C55         O677   1.261       .  A
C59         C517   1.441       .  S
O61        In665   2.242       .  S
O61         C671   1.261       .  A
In62         O64   2.246       .  S
In62         O65   2.265       .  S
In62         O73   2.255       .  S
In62         O67   2.251       .  S
In62         O69   2.256       .  S
In62         O70   2.260       .  S
In62         O71   2.240       .  S
In62        O690   2.242       .  S
C63         C508   1.468       .  S
C63          O69   1.262       .  A
C63          O71   1.256       .  A
O64          C72   1.256       .  A
O65          C72   1.261       .  A
C66          O73   1.260       .  A
C66          O67   1.259       .  A
C66         C520   1.439       .  S
C68        C1172   1.477       .  S
C68          O70   1.265       .  A
C68         O690   1.261       .  A
C72         C511   1.439       .  S
O74        In678   2.242   1_545  S
O74         C684   1.261       .  A
In75         O77   2.260       .  S
In75         O78   2.260       .  S
In75         O86   2.264       .  S
In75         O80   2.236       .  S
In75         O82   2.254       .  S
In75         O83   2.280       .  S
In75         O84   2.252       .  S
In75         O87   2.246       .  S
C76         C580   1.475       .  S
C76          O82   1.257       .  A
C76          O84   1.261       .  A
O77          C85   1.257       .  A
O78          C85   1.258       .  A
C79          O86   1.262       .  A
C79          O80   1.258       .  A
C79         C505   1.438       .  S
C81         C502   1.479       .  S
C81          O83   1.261       .  A
C81          O87   1.258       .  A
C85         C518   1.440       .  S
In88         O90   2.243       .  S
In88         O91   2.261       .  S
In88         O99   2.256       .  S
In88         O93   2.243       .  S
In88         O95   2.255       .  S
In88         O96   2.260       .  S
In88         O97   2.223       .  S
In88        O100   2.238       .  S
C89         C532   1.460       .  S
C89          O95   1.262       .  A
C89          O97   1.256       .  A
O90          C98   1.257       .  A
O91          C98   1.262       .  A
C92          O99   1.260       .  A
C92          O93   1.259       .  A
C92         C506   1.438       .  S
C94         C497   1.473       .  S
C94          O96   1.264       .  A
C94         O100   1.260       .  A
C98         C512   1.439       .  S
C101        C102   1.535       .  S
C101        C107   1.533       .  S
C101        C105   1.535       .  S
C101        C513   1.511       .  S
C102        H725   1.086       .  S
C102        C103   1.364       .  D
C103        C104   1.541       .  S
C103        C478   1.476       .  S
C104        C108   1.541       .  S
C104        C106   1.540       .  S
C104        H110   1.111       .  S
C105        H727   1.086       .  S
C105        C106   1.367       .  D
C106        C468   1.473       .  S
C107        H112   1.086       .  S
C107        C108   1.365       .  D
C108        C488   1.485       .  S
H109        C718   1.086   1_545  S
H111        C721   1.086   1_545  S
C113        C114   1.532       .  S
C113        C119   1.537       .  S
C113        C117   1.544       .  S
C113        C491   1.530       .  S
C114        H121   1.086       .  S
C114        C115   1.364       .  D
C115        C116   1.540       .  S
C115        C458   1.483       .  S
C116        C120   1.542       .  S
C116        C118   1.548       .  S
C116        H122   1.109       .  S
C117        H123   1.081       .  S
C117        C118   1.372       .  D
C118        C448   1.497       .  S
C119        H124   1.084       .  S
C119        C120   1.368       .  D
C120        C501   1.496       .  S
C125        C126   1.538   1_545  S
C125        C131   1.530       .  S
C125        C129   1.534       .  S
C125        C507   1.514   1_545  S
C126        H749   1.086       .  S
C126        C127   1.369   1_565  D
C127        C128   1.545       .  S
C127        C481   1.489       .  S
C128        C132   1.543       .  S
C128        C130   1.540       .  S
C128        H134   1.111       .  S
C129        H751   1.086   1_545  S
C129        C130   1.369       .  D
C130        C428   1.477       .  S
C131        H136   1.086       .  S
C131        C132   1.363       .  D
C132        C438   1.484       .  S
H133        C742   1.086       .  S
H135        C745   1.086       .  S
C137        C138   1.544       .  S
C137        C143   1.538       .  S
C137        C141   1.533       .  S
C137        C441   1.527       .  S
C138        H145   1.081       .  S
C138        C139   1.369       .  D
C139        C140   1.545       .  S
C139        C461   1.495       .  S
C140        C144   1.536       .  S
C140        C142   1.536       .  S
C140        H146   1.108       .  S
C141        H147   1.086       .  S
C141        C142   1.365       .  D
C142        C418   1.479       .  S
C143        H148   1.084       .  S
C143        C144   1.368       .  D
C144        C498   1.487       .  S
C149        C150   1.533   1_545  S
C149        C155   1.532       .  S
C149        C153   1.533       .  S
C149        C414   1.507   1_545  S
C150        H773   1.086       .  S
C150        C151   1.364   1_565  D
C151        C152   1.539       .  S
C151        C394   1.483       .  S
C152        C156   1.536       .  S
C152        C154   1.541       .  S
C152        H158   1.109       .  S
C153        H775   1.086   1_545  S
C153        C154   1.371       .  D
C154        C471   1.475       .  S
C155        H160   1.087       .  S
C155        C156   1.362       .  D
C156        C407   1.476       .  S
H157        C766   1.086       .  S
H159        C769   1.086       .  S
C161        C162   1.545       .  S
C161        C167   1.537       .  S
C161        C165   1.535       .  S
C161        C404   1.530       .  S
C162        H169   1.079       .  S
C162        C163   1.371       .  D
C163        C164   1.546       .  S
C163        C380   1.495       .  S
C164        C168   1.542       .  S
C164        C166   1.539       .  S
C164        H170   1.109       .  S
C165        H171   1.086       .  S
C165        C166   1.364       .  D
C166        C451   1.484       .  S
C167        H172   1.084       .  S
C167        C168   1.369       .  D
C168        C389   1.500       .  S
C173        C174   1.538       .  S
C173        C179   1.534       .  S
C173        C177   1.536       .  S
C173        C375   1.511       .  S
C174        H797   1.086       .  S
C174        C175   1.368       .  D
C175        C176   1.539       .  S
C175        C397   1.484       .  S
C176        C180   1.537       .  S
C176        C178   1.536       .  S
C176        H182   1.110       .  S
C177        H799   1.086       .  S
C177        C178   1.367       .  D
C178        C431   1.473       .  S
C179        H184   1.086       .  S
C179        C180   1.364       .  D
C180        C366   1.481       .  S
H181        C790   1.086   1_545  S
H183        C793   1.085       .  S
C185        C186   1.545       .  S
C185        C191   1.538       .  S
C185        C189   1.539       .  S
C185        C369   1.531       .  S
C186        H193   1.082       .  S
C186        C187   1.366       .  D
C187        C188   1.534       .  S
C187        C383   1.482       .  S
C188        C192   1.531       .  S
C188        C190   1.544       .  S
C188        H194   1.107       .  S
C189        H195   1.085       .  S
C189        C190   1.372       .  D
C190        C421   1.493       .  S
C191        H196   1.085       .  S
C191        C192   1.364       .  D
C192        C362   1.484       .  S
In197       O199   2.248   1_655  S
In197       O200   2.263       .  S
In197       O208   2.258       .  S
In197       O202   2.251   1_655  S
In197       O204   2.252   1_655  S
In197       O205   2.254       .  S
In197       O206   2.243       .  S
In197       O825   2.241       .  S
C198        C413   1.468       .  S
C198        O204   1.262       .  A
C198        O206   1.257   1_455  A
O199        C207   1.256   1_455  A
O200        C207   1.260       .  A
C201        O208   1.260       .  A
C201        O202   1.259   1_655  A
C201        C360   1.440       .  S
C203        C969   1.474       .  S
C203        O205   1.264       .  A
C203        O825   1.261       .  A
C207        C357   1.439       .  S
O209       In813   2.242   1_545  S
O209        C819   1.260       .  A
In210       O212   2.253   1_655  S
In210       O213   2.256       .  S
In210       O221   2.265       .  S
In210       O215   2.242   1_655  S
In210       O217   2.249   1_655  S
In210       O218   2.276       .  S
In210       O219   2.235   1_655  S
In210       O838   2.245   1_545  S
C211        C376   1.472       .  S
C211        O217   1.259       .  A
C211        O219   1.263       .  A
O212        C220   1.257       .  A
O213        C220   1.259   1_655  A
C214        O221   1.259       .  A
C214        O215   1.256   1_655  A
C214        C359   1.436       .  S
C216        C963   1.478       .  S
C216        O218   1.261   1_565  A
C216        O838   1.258       .  A
C220        C352   1.438       .  S
O222       In826   2.240       .  S
O222        C832   1.261       .  A
In223       O225   2.253   1_455  S
In223       O226   2.256       .  S
In223       O234   2.270       .  S
In223       O228   2.248   1_455  S
In223       O230   2.256   1_455  S
In223       O231   2.291       .  S
In223       O232   2.253   1_455  S
In223       O235   2.244       .  S
C224        C342   1.479       .  S
C224        O230   1.259       .  A
C224        O232   1.262       .  A
O225        C233   1.259       .  A
O226        C233   1.260   1_455  A
C227        O234   1.260       .  A
C227        O228   1.256   1_455  A
C227        C345   1.440       .  S
C229        C390   1.482       .  S
C229        O231   1.262       .  A
C229        O235   1.257       .  A
C233        C358   1.439       .  S
In236       O238   2.247   1_455  S
In236       O239   2.265       .  S
In236       O247   2.259       .  S
In236       O241   2.247       .  S
In236       O243   2.246   1_455  S
In236       O244   2.254       .  S
In236       O245   2.237       .  S
In236       O248   2.242       .  S
C237        C338   1.464       .  S
C237        O243   1.261       .  A
C237        O245   1.257   1_655  A
O238        C246   1.255   1_655  A
O239        C246   1.259       .  A
C240        O247   1.260       .  A
C240        O241   1.258       .  A
C240        C346   1.440       .  S
C242        C361   1.472       .  S
C242        O244   1.263       .  A
C242        O248   1.260       .  A
C246        C351   1.437       .  S
C249        C250   1.539       .  S
C249        C255   1.543       .  S
C249        C253   1.544       .  S
C249        C328   1.535       .  S
C250        H257   1.085       .  S
C250        C251   1.372       .  D
C251        C252   1.544       .  S
C251        C318   1.496       .  S
C252        C256   1.536       .  S
C252        C254   1.533       .  S
C252        H874   1.109   1_545  S
C253        H259   1.084       .  S
C253        C254   1.364       .  D
C254        C587   1.477       .  S
C255        H260   1.083       .  S
C255        C256   1.369       .  D
C256        C354   1.493       .  S
H258        C868   1.108       .  S
C261        C262   1.528       .  S
C261        C267   1.536       .  S
C261        C265   1.539       .  S
C261        C341   1.516       .  S
C262        H269   1.086       .  S
C262        C263   1.363       .  D
C263        C264   1.540       .  S
C263        C308   1.481       .  S
C264        C268   1.546       .  S
C264        C266   1.545       .  S
C264        H270   1.108       .  S
C265        H271   1.086       .  S
C265        C266   1.372       .  D
C266        C560   1.488       .  S
C267        H272   1.085       .  S
C267        C268   1.370       .  D
C268        C331   1.497       .  S
C273        C274   1.535       .  S
C273        C279   1.539       .  S
C273        C277   1.541       .  S
C273        C298   1.530       .  S
C274        H281   1.086       .  S
C274        C275   1.367       .  D
C275        C276   1.539       .  S
C275        C321   1.483       .  S
C276        C280   1.539       .  S
C276        C278   1.538       .  S
C276        H898   1.110       .  S
C277        H283   1.082       .  S
C277        C278   1.366       .  D
C278        C539   1.482       .  S
C279        H284   1.084       .  S
C279        C280   1.370       .  D
C280        C348   1.491       .  S
H282        C892   1.110   1_545  S
C285        C286   1.533       .  S
C285        C291   1.532       .  S
C285        C289   1.533       .  S
C285        C337   1.505       .  S
C286        H293   1.086       .  S
C286        C287   1.367       .  D
C287        C288   1.541       .  S
C287        C311   1.482       .  S
C288        C292   1.542       .  S
C288        C290   1.537       .  S
C288        H294   1.110       .  S
C289        H295   1.086       .  S
C289        C290   1.364       .  D
C290        C525   1.468       .  S
C291        H296   1.086       .  S
C291        C292   1.365       .  D
C292        C301   1.484       .  S
C297        C298   1.408       .  A
C297        C302   1.397       .  A
C297        H303   1.083       .  S
C298        C299   1.413       .  A
C299        C300   1.399       .  A
C299        H304   1.078       .  S
C300        C301   1.400       .  A
C300        H305   1.082       .  S
C301        C302   1.404       .  A
C302        H306   1.083       .  S
C307        C308   1.404       .  A
C307        C312   1.391       .  A
C307        H313   1.083       .  S
C308        C309   1.404       .  A
C309        C310   1.402       .  A
C309        H314   1.083       .  S
C310        C311   1.406       .  A
C310        H315   1.083       .  S
C311        C312   1.403       .  A
C312        H316   1.083       .  S
C317        C318   1.407   1_565  A
C317        C938   1.396       .  A
C317        H323   1.081       .  S
C318        C319   1.410       .  A
C319        C936   1.404       .  A
C319        H324   1.082       .  S
C320        C321   1.402       .  A
C320        C935   1.401       .  A
C320        H325   1.083       .  S
C321        C322   1.403       .  A
C322        C933   1.396       .  A
C322        H326   1.083       .  S
C327        C328   1.411       .  A
C327        C332   1.400       .  A
C327        H333   1.080       .  S
C328        C329   1.408       .  A
C329        C330   1.400       .  A
C329        H334   1.082       .  S
C330        C331   1.408       .  A
C330        H335   1.082       .  S
C331        C332   1.404       .  A
C332        H336   1.079       .  S
C337        H339   1.087       .  S
C337        C338   1.341       .  D
C338        H340   1.087       .  S
C341        H343   1.087       .  S
C341        C342   1.342       .  D
C342        H344   1.086       .  S
C345        C346   1.209   1_556  T
C347        H965   1.084       .  S
C347        C348   1.347       .  D
C347        C832   1.477       .  S
C348        H350   1.086       .  S
H349        C963   1.084       .  S
C351        C352   1.207       .  T
C353        H355   1.084       .  S
C353        C354   1.346       .  D
C353        C819   1.479       .  S
C354        H972   1.086   1_545  S
H356        C970   1.086       .  S
C357        C358   1.208       .  T
C359        C976   1.206   1_544  T
C360        C975   1.208   1_556  T
C361        H363   1.085       .  S
C361        C362   1.344       .  D
C362        H364   1.086       .  S
C365        C366   1.401       .  A
C365        C370   1.400       .  A
C365        H371   1.083       .  S
C366        C367   1.401       .  A
C367        C368   1.396       .  A
C367        H372   1.083       .  S
C368        C369   1.409       .  A
C368        H373   1.083       .  S
C369        C370   1.413       .  A
C370        H374   1.078       .  S
C375        H993   1.087       .  S
C375        C992   1.342       .  D
C376        H378   1.088   1_545  S
C376        C991   1.340       .  D
H377        C991   1.089       .  S
C379        C380   1.411       .  A
C379        C384   1.401       .  A
C379        H385   1.082       .  S
C380        C381   1.406       .  A
C381        C382   1.395       .  A
C381        H386   1.081       .  S
C382        C383   1.402       .  A
C382        H387   1.083       .  S
C383        C384   1.402       .  A
C384        H388   1.083       .  S
C389        H391   1.086       .  S
C389        C390   1.350       .  D
C390        H392   1.083       .  S
C393        C394   1.405   1_565  A
C393        C398   1.392       .  A
C393        H399   1.082       .  S
C394       C1011   1.405       .  A
C395        C396   1.397       .  A
C395       C1010   1.403       .  A
C395        H400   1.083       .  S
C396        C397   1.405       .  A
C396        H401   1.082       .  S
C397       C1014   1.405       .  A
C398       C1013   1.403       .  A
C398        H402   1.083       .  S
C403        C404   1.414       .  A
C403        C408   1.400       .  A
C403        H409   1.077       .  S
C404        C405   1.409       .  A
C405        C406   1.395       .  A
C405        H410   1.083       .  S
C406        C407   1.400       .  A
C406        H411   1.083       .  S
C407        C408   1.399       .  A
C408        H412   1.084       .  S
C413        H415   1.087       .  S
C413       C1030   1.340       .  D
C414        H416   1.087       .  S
C414       C1029   1.343   1_565  D
C417        C418   1.401       .  A
C417        C422   1.392       .  A
C417        H423   1.083       .  S
C418        C419   1.403       .  A
C419        C420   1.401       .  A
C419        H424   1.083       .  S
C420        C421   1.410       .  A
C420        H425   1.082       .  S
C421        C422   1.407       .  A
C422        H426   1.080       .  S
C427        C432   1.395       .  A
C427       C1044   1.405       .  A
C427        H433   1.083       .  S
C428        C429   1.404       .  A
C428       C1043   1.402   1_545  A
C429        C430   1.403       .  A
C429        H434   1.083       .  S
C430       C1047   1.406   1_545  A
C430        H435   1.083       .  S
C431        C432   1.400       .  A
C431       C1046   1.404       .  A
C432        H436   1.084       .  S
C437        C438   1.399       .  A
C437        C442   1.397       .  A
C437        H443   1.078       .  S
C438        C439   1.405       .  A
C439        C440   1.397       .  A
C439        H444   1.083       .  S
C440        C441   1.409       .  A
C440        H445   1.083       .  S
C441        C442   1.411       .  A
C442        H446   1.079       .  S
C447        C448   1.407       .  A
C447        C452   1.398       .  A
C447        H453   1.081       .  S
C448        C449   1.411       .  A
C449        C450   1.402       .  A
C449        H454   1.082       .  S
C450        C451   1.401       .  A
C450        H455   1.083       .  S
C451        C452   1.405       .  A
C452        H456   1.083       .  S
C457        C458   1.404       .  A
C457        C462   1.395       .  A
C457        H463   1.083       .  S
C458        C459   1.402       .  A
C459        C460   1.401       .  A
C459        H464   1.083       .  S
C460        C461   1.411       .  A
C460        H465   1.081       .  S
C461        C462   1.406       .  A
C462        H466   1.081       .  S
C467        C468   1.400       .  A
C467        C472   1.397       .  A
C467        H473   1.081       .  S
C468       C1085   1.403       .  A
C469        C470   1.395       .  A
C469       C1084   1.401   1_545  A
C469        H474   1.084       .  S
C470        C471   1.404       .  A
C470        H475   1.083       .  S
C471       C1088   1.405   1_545  A
C472       C1087   1.405       .  A
C472        H476   1.083       .  S
C477        C482   1.400       .  A
C477       C1094   1.403   1_545  A
C477        H483   1.083       .  S
C478        C479   1.400       .  A
C478       C1093   1.404       .  A
C479        C480   1.399       .  A
C479        H484   1.083       .  S
C480       C1097   1.408       .  A
C480        H485   1.083       .  S
C481        C482   1.403       .  A
C481       C1096   1.408   1_545  A
C482        H486   1.079       .  S
C487        C488   1.402       .  A
C487        C492   1.395       .  A
C487        H493   1.083       .  S
C488        C489   1.402       .  A
C489        C490   1.402       .  A
C489        H494   1.080       .  S
C490        C491   1.411       .  A
C490        H495   1.079       .  S
C491        C492   1.409       .  A
C492        H496   1.083       .  S
C497        H499   1.085       .  S
C497        C498   1.344       .  D
C498        H500   1.086       .  S
C501        H503   1.086       .  S
C501        C502   1.349       .  D
C502        H504   1.084       .  S
C505        C506   1.207   1_556  T
C507        H509   1.087       .  S
C507       C1124   1.344       .  D
C508        H510   1.087       .  S
C508       C1123   1.340       .  D
C511        C512   1.208       .  T
C513       H1131   1.087       .  S
C513       C1130   1.343       .  D
C514        H516   1.087       .  S
C514       C1129   1.340   1_565  D
H515       C1129   1.087       .  S
C517        C518   1.209       .  T
C519       C1136   1.211   1_546  T
C520       C1135   1.208   1_554  T
C521        C522   1.403       .  A
C521        C526   1.397       .  A
C521        H527   1.083       .  S
C522        C523   1.405       .  A
C523        C524   1.395       .  A
C523        H528   1.083       .  S
C524        C525   1.398       .  A
C524        H529   1.082       .  S
C525        C526   1.402       .  A
C526        H530   1.083       .  S
C531        H533   1.087       .  S
C531        C532   1.340       .  D
C532        H534   1.087       .  S
C535        C536   1.403       .  A
C535        C540   1.396       .  A
C535        H541   1.083       .  S
C536       C1153   1.400   1_545  A
C537        C538   1.392       .  A
C537       C1152   1.405       .  A
C537        H542   1.076       .  S
C538        C539   1.401       .  A
C538        H543   1.083       .  S
C539       C1156   1.402       .  A
C540       C1155   1.405   1_545  A
C540        H544   1.082       .  S
C545        C546   1.409       .  A
C545        C550   1.392       .  A
C545        H551   1.083       .  S
C546        C547   1.413       .  A
C547        C548   1.403       .  A
C547        H552   1.078       .  S
C548        C549   1.401       .  A
C548        H553   1.083       .  S
C549        C550   1.399       .  A
C550        H554   1.083       .  S
C555       H1173   1.086   1_545  S
C555        C556   1.348       .  D
C556        H558   1.083       .  S
C556        C684   1.478       .  S
H557       C1171   1.086       .  S
C559        C560   1.404       .  A
C559        C564   1.400       .  A
C559        H565   1.080       .  S
C560        C561   1.405       .  A
C561        C562   1.402       .  A
C561        H566   1.083       .  S
C562        C563   1.404       .  A
C562        H567   1.080       .  S
C563        C564   1.403       .  A
C564        H568   1.083       .  S
C569        C570   1.404       .  A
C569        C574   1.403       .  A
C569        H575   1.083       .  S
C570        C571   1.405       .  A
C571        C572   1.392       .  A
C571        H576   1.083       .  S
C572        C573   1.403       .  A
C572        H577   1.083       .  S
C573        C574   1.406       .  A
C574        H578   1.083       .  S
C579        H581   1.087       .  S
C579        C580   1.341       .  D
C580        H582   1.086       .  S
C583        C588   1.395       .  A
C583       C1200   1.406   1_545  A
C583        H589   1.081       .  S
C584        C585   1.410       .  A
C584       C1199   1.405       .  A
C585        C586   1.400       .  A
C585        H590   1.082       .  S
C586       C1203   1.401       .  A
C586        H591   1.083       .  S
C587        C588   1.402       .  A
C587       C1202   1.401   1_545  A
C588        H592   1.083       .  S
C593        C594   1.404       .  A
C593       C1214   1.401       .  A
C593        H599   1.082       .  S
C594        C595   1.403       .  A
C595       C1212   1.395       .  A
C595        H600   1.081       .  S
C596        C597   1.407   1_565  A
C596       C1211   1.396       .  A
C596        H601   1.081       .  S
C597        C598   1.409       .  A
C598       C1209   1.401       .  A
C598        H602   1.082       .  S
C603        C604   1.409       .  A
C603        C608   1.399       .  A
C603        H609   1.083       .  S
C604        C605   1.411       .  A
C605        C606   1.398       .  A
C605        H610   1.078       .  S
C606        C607   1.402       .  A
C606        H611   1.079       .  S
C607        C608   1.406       .  A
C608        H612   1.082       .  S
C613        H615   1.086       .  S
C613        C614   1.345       .  D
C614       H1232   1.085       .  S
C614        C671   1.473       .  S
H616       C1230   1.085       .  S
C617        C618   1.537       .  S
C617        C623   1.539       .  S
C617        C621   1.546       .  S
C617       C1220   1.530       .  S
C618        H625   1.086       .  S
C618        C619   1.366       .  D
C619        C620   1.535       .  S
C619       C1210   1.483       .  S
C620        C624   1.535       .  S
C620        C622   1.540       .  S
C621        H627   1.080       .  S
C621        C622   1.370       .  D
C622       C1200   1.489       .  S
C623        H628   1.085       .  S
C623        C624   1.367       .  D
C624       C1229   1.486       .  S
C629        C630   1.533       .  S
C629        C635   1.532       .  S
C629        C633   1.536       .  S
C629       C1195   1.512       .  S
C630        H637   1.086       .  S
C630        C631   1.366       .  D
C631        C632   1.542       .  S
C631       C1186   1.484       .  S
C632        C636   1.542       .  S
C632        C634   1.544       .  S
C632        H638   1.109       .  S
C633        H639   1.086       .  S
C633        C634   1.371       .  D
C634       C1179   1.489       .  S
C635        H640   1.086       .  S
C635        C636   1.364       .  D
C636       C1223   1.482       .  S
C641        C642   1.546       .  S
C641        C647   1.539       .  S
C641        C645   1.534       .  S
C641       C1162   1.531       .  S
C642        H649   1.078       .  S
C642        C643   1.375       .  D
C643        C644   1.549       .  S
C643       C1213   1.510       .  S
C644        C648   1.535       .  S
C644        C646   1.544       .  S
C645        H651   1.085       .  S
C645        C646   1.367       .  D
C646       C1152   1.495       .  S
C647        H652   1.084       .  S
C647        C648   1.365       .  D
C648       C1171   1.492       .  S
C653        C654   1.537       .  S
C653        C659   1.531       .  S
C653        C657   1.529       .  S
C653       C1147   1.505       .  S
C654        H661   1.086       .  S
C654        C655   1.370       .  D
C655        C656   1.539       .  S
C655       C1189   1.483       .  S
C656        C660   1.539       .  S
C656        C658   1.539       .  S
C656        H662   1.110       .  S
C657        H663   1.086       .  S
C657        C658   1.364       .  D
C658       C1138   1.472       .  S
C659        H664   1.086       .  S
C659        C660   1.364       .  D
C660       C1165   1.480       .  S
In665       O667   2.245       .  S
In665       O668   2.257       .  S
In665       O676   2.255       .  S
In665       O670   2.257       .  S
In665       O672   2.264       .  S
In665       O673   2.254       .  S
In665       O674   2.237       .  S
C666       C1130   1.469       .  S
C666        O672   1.262       .  A
C666        O674   1.256       .  A
O667        C675   1.256       .  A
O668        C675   1.259       .  A
C669        O676   1.258       .  A
C669        O670   1.259       .  A
C669       C1135   1.439       .  S
C671        O673   1.263       .  A
C675       C1133   1.436       .  S
In678       O680   2.242       .  S
In678       O681   2.260       .  S
In678       O689   2.262       .  S
In678       O683   2.260   1_565  S
In678       O685   2.268       .  S
In678       O686   2.266       .  S
In678       O687   2.241       .  S
C679       C1124   1.472       .  S
C679        O685   1.262       .  A
C679        O687   1.257       .  A
O680        C688   1.257       .  A
O681        C688   1.262       .  A
C682        O689   1.260       .  A
C682        O683   1.260   1_565  A
C682       C1136   1.445       .  S
C684        O686   1.264   1_545  A
C688       C1127   1.438       .  S
In691       O693   2.251       .  S
In691       O694   2.260       .  S
In691       O702   2.259       .  S
In691       O696   2.262       .  S
In691       O698   2.263       .  S
In691       O699   2.270       .  S
In691       O700   2.243       .  S
In691       O703   2.243       .  S
C692       C1196   1.471       .  S
C692        O698   1.261       .  A
C692        O700   1.257       .  A
O693        C701   1.256       .  A
O694        C701   1.259       .  A
C695        O702   1.259       .  A
C695        O696   1.258       .  A
C695       C1121   1.442       .  S
C697       C1118   1.479       .  S
C697        O699   1.263       .  A
C697        O703   1.261       .  A
C701       C1134   1.437       .  S
In704       O706   2.246       .  S
In704       O707   2.260       .  S
In704       O715   2.257       .  S
In704       O709   2.260       .  S
In704       O711   2.248       .  S
In704       O712   2.262       .  S
In704       O713   2.241       .  S
In704       O716   2.247       .  S
C705       C1148   1.466       .  S
C705        O711   1.262       .  A
C705        O713   1.256       .  A
O706        C714   1.257       .  A
O707        C714   1.261       .  A
C708        O715   1.259       .  A
C708        O709   1.260       .  A
C708       C1122   1.442       .  S
C710       C1113   1.478       .  S
C710        O712   1.263       .  A
C710        O716   1.261       .  A
C714       C1128   1.438       .  S
C717        C718   1.538       .  S
C717        C723   1.535       .  S
C717        C721   1.531       .  S
C717       C1129   1.510   1_565  S
C718        C719   1.368       .  D
C719        C720   1.540       .  S
C719       C1094   1.481       .  S
C720        C724   1.539       .  S
C720        C722   1.537       .  S
C720        H726   1.111       .  S
C721        C722   1.362       .  D
C722       C1084   1.465       .  S
C723        H728   1.086       .  S
C723        C724   1.367       .  D
C724       C1104   1.483       .  S
C729        C730   1.533       .  S
C729        C735   1.537       .  S
C729        C733   1.542       .  S
C729       C1107   1.528       .  S
C730        H737   1.087       .  S
C730        C731   1.363       .  D
C731        C732   1.541       .  S
C731       C1074   1.484       .  S
C732        C736   1.543       .  S
C732        C734   1.549       .  S
C732        H738   1.109       .  S
C733        H739   1.080       .  S
C733        C734   1.372       .  D
C734       C1064   1.496       .  S
C735        H740   1.084       .  S
C735        C736   1.368       .  D
C736       C1117   1.496       .  S
C741        C742   1.534       .  S
C741        C747   1.530       .  S
C741        C745   1.529       .  S
C741       C1123   1.509       .  S
C742        C743   1.368       .  D
C743        C744   1.546       .  S
C743       C1097   1.485       .  S
C744        C748   1.547       .  S
C744        C746   1.541       .  S
C744        H750   1.110       .  S
C745        C746   1.364       .  D
C746       C1044   1.475       .  S
C747        H752   1.086       .  S
C747        C748   1.368       .  D
C748       C1054   1.494       .  S
C753        C754   1.542       .  S
C753        C759   1.541       .  S
C753        C757   1.535       .  S
C753       C1057   1.532       .  S
C754        H761   1.084       .  S
C754        C755   1.372       .  D
C755        C756   1.546       .  S
C755       C1077   1.496       .  S
C756        C760   1.539       .  S
C756        C758   1.537       .  S
C756        H762   1.109       .  S
C757        H763   1.086       .  S
C757        C758   1.367       .  D
C758       C1034   1.481       .  S
C759        H764   1.083       .  S
C759        C760   1.366       .  D
C760       C1114   1.492       .  S
C765        C766   1.535       .  S
C765        C771   1.532       .  S
C765        C769   1.532       .  S
C765       C1030   1.508       .  S
C766        C767   1.367       .  D
C767        C768   1.542       .  S
C767       C1010   1.482       .  S
C768        C772   1.539       .  S
C768        C770   1.541       .  S
C768        H774   1.110       .  S
C769        C770   1.366       .  D
C770       C1087   1.478       .  S
C771        H776   1.086       .  S
C771        C772   1.366       .  D
C772       C1023   1.481       .  S
C777        C778   1.544       .  S
C777        C783   1.537       .  S
C777        C781   1.531       .  S
C777       C1020   1.530       .  S
C778        H785   1.080       .  S
C778        C779   1.373       .  D
C779        C780   1.546       .  S
C779        C996   1.496       .  S
C780        C784   1.540       .  S
C780        C782   1.541       .  S
C780        H786   1.108       .  S
C781        H787   1.086       .  S
C781        C782   1.364       .  D
C782       C1067   1.484       .  S
C783        H788   1.083       .  S
C783        C784   1.368       .  D
C784       C1005   1.495       .  S
C789        C790   1.530       .  S
C789        C795   1.534       .  S
C789        C793   1.538   1_565  S
C789        C991   1.507   1_565  S
C790        C791   1.363       .  D
C791        C792   1.537       .  S
C791       C1013   1.478       .  S
C792        C796   1.542       .  S
C792        C794   1.540       .  S
C792        H798   1.109       .  S
C793        C794   1.370   1_545  D
C794       C1047   1.480       .  S
C795        H800   1.086       .  S
C795        C796   1.367       .  D
C796        C982   1.487       .  S
C801        C802   1.541       .  S
C801        C807   1.541       .  S
C801        C805   1.533       .  S
C801        C985   1.528       .  S
C802        H809   1.085       .  S
C802        C803   1.364       .  D
C803        C804   1.538       .  S
C803        C999   1.481       .  S
C804        C808   1.539       .  S
C804        C806   1.545       .  S
C804        H810   1.109       .  S
C805        H811   1.085       .  S
C805        C806   1.370       .  D
C806       C1037   1.492       .  S
C807        H812   1.083       .  S
C807        C808   1.368       .  D
C808        C978   1.494       .  S
In813       O815   2.244   1_655  S
In813       O816   2.267       .  S
In813       O824   2.258       .  S
In813       O818   2.239   1_565  S
In813       O820   2.253   1_655  S
In813       O821   2.271       .  S
In813       O822   2.230   1_655  S
C814       C1029   1.462   1_565  S
C814        O820   1.260       .  A
C814        O822   1.258       .  A
O815        C823   1.255   1_455  A
O816        C823   1.261       .  A
C817        O824   1.260       .  A
C817        O818   1.258   1_565  A
C817        C976   1.436       .  S
C819        O821   1.265   1_545  A
C823        C973   1.438       .  S
In826       O828   2.254   1_655  S
In826       O829   2.264       .  S
In826       O837   2.256       .  S
In826       O831   2.253   1_655  S
In826       O833   2.265   1_655  S
In826       O834   2.264       .  S
In826       O835   2.241   1_655  S
C827        C992   1.469       .  S
C827        O833   1.261       .  A
C827        O835   1.256       .  A
O828        C836   1.256   1_455  A
O829        C836   1.260       .  A
C830        O837   1.260       .  A
C830        O831   1.260   1_655  A
C830        C975   1.440       .  S
C832        O834   1.265       .  A
C836        C968   1.440   1_655  S
In839       O841   2.251   1_455  S
In839       O842   2.261       .  S
In839       O850   2.266       .  S
In839       O844   2.233   1_455  S
In839       O846   2.244   1_455  S
In839       O847   2.272       .  S
In839       O848   2.245   1_455  S
In839       O851   2.242       .  S
C840        C958   1.472       .  S
C840        O846   1.257       .  A
C840        O848   1.262       .  A
O841        C849   1.257       .  A
O842        C849   1.259   1_455  A
C843        O850   1.260       .  A
C843        O844   1.255   1_455  A
C843        C961   1.435       .  S
C845       C1006   1.476       .  S
C845        O847   1.261       .  A
C845        O851   1.258       .  A
C849        C974   1.438       .  S
In852       O854   2.251   1_455  S
In852       O855   2.266       .  S
In852       O863   2.257       .  S
In852       O857   2.243   1_455  S
In852       O859   2.257   1_455  S
In852       O860   2.269       .  S
In852       O861   2.226   1_455  S
In852       O864   2.240       .  S
C853        C954   1.461       .  S
C853        O859   1.260       .  A
C853        O861   1.256       .  A
O854        C862   1.256   1_655  A
O855        C862   1.260       .  A
C856        O863   1.260       .  A
C856        O857   1.258   1_455  A
C856        C962   1.436       .  S
C858        C977   1.477       .  S
C858        O860   1.264       .  A
C858        O864   1.260       .  A
C862        C967   1.440       .  S
C865        C866   1.537       .  S
C865        C871   1.537       .  S
C865        C869   1.543       .  S
C865        C944   1.529       .  S
C866        H873   1.085       .  S
C866        C867   1.371       .  D
C867        C868   1.545       .  S
C867        C934   1.497       .  S
C868        C872   1.537       .  S
C868        C870   1.535       .  S
C869        H875   1.082       .  S
C869        C870   1.364       .  D
C870       C1203   1.479       .  S
C871        H876   1.084       .  S
C871        C872   1.367       .  D
C872        C970   1.489       .  S
C877        C878   1.527       .  S
C877        C883   1.534       .  S
C877        C881   1.536       .  S
C877        C957   1.507       .  S
C878        H885   1.086       .  S
C878        C879   1.364       .  D
C879        C880   1.540       .  S
C879        C924   1.479       .  S
C880        C884   1.542       .  S
C880        C882   1.536       .  S
C880        H886   1.110       .  S
C881        H887   1.086       .  S
C881        C882   1.367       .  D
C882       C1176   1.471       .  S
C883        H888   1.086       .  S
C883        C884   1.367       .  D
C884        C947   1.483       .  S
C889        C890   1.536       .  S
C889        C895   1.538       .  S
C889        C893   1.542       .  S
C889        C914   1.531       .  S
C890        H897   1.086       .  S
C890        C891   1.367       .  D
C891        C892   1.538       .  S
C891        C937   1.485       .  S
C892        C896   1.542       .  S
C892        C894   1.546       .  S
C893        H899   1.081       .  S
C893        C894   1.368       .  D
C894       C1155   1.491       .  S
C895        H900   1.084       .  S
C895        C896   1.368       .  D
C896        C964   1.495       .  S
C901        C902   1.530       .  S
C901        C907   1.532       .  S
C901        C905   1.531       .  S
C901        C953   1.506       .  S
C902        H909   1.086       .  S
C902        C903   1.363       .  D
C903        C904   1.541       .  S
C903        C927   1.478       .  S
C904        C908   1.542       .  S
C904        C906   1.537       .  S
C904        H910   1.111       .  S
C905        H911   1.086       .  S
C905        C906   1.366       .  D
C906       C1141   1.464       .  S
C907        H912   1.086       .  S
C907        C908   1.365       .  D
C908        C917   1.484       .  S
C913        C914   1.409       .  A
C913        C918   1.396       .  A
C913        H919   1.083       .  S
C914        C915   1.413       .  A
C915        C916   1.401       .  A
C915        H920   1.078       .  S
C916        C917   1.401       .  A
C916        H921   1.082       .  S
C917        C918   1.403       .  A
C918        H922   1.083       .  S
C923        C924   1.403       .  A
C923        C928   1.388       .  A
C923        H929   1.083       .  S
C924        C925   1.406       .  A
C925        C926   1.402       .  A
C925        H930   1.083       .  S
C926        C927   1.405       .  A
C926        H931   1.083       .  S
C927        C928   1.403       .  A
C928        H932   1.083       .  S
C933        C934   1.408       .  A
C933        H939   1.080       .  S
C934        C935   1.410       .  A
C935        H940   1.081       .  S
C936        C937   1.403   1_545  A
C936        H941   1.083       .  S
C937        C938   1.402       .  A
C938        H942   1.083       .  S
C943        C944   1.412       .  A
C943        C948   1.398       .  A
C943        H949   1.077       .  S
C944        C945   1.409       .  A
C945        C946   1.397       .  A
C945        H950   1.083       .  S
C946        C947   1.403       .  A
C946        H951   1.083       .  S
C947        C948   1.401       .  A
C948        H952   1.082       .  S
C953        H955   1.087       .  S
C953        C954   1.341       .  D
C954        H956   1.087       .  S
C957        H959   1.087       .  S
C957        C958   1.339       .  D
C958        H960   1.086       .  S
C961        C962   1.206   1_556  T
C963        C964   1.349       .  D
C964        H966   1.086   1_565  S
C967        C968   1.209       .  T
C969        H971   1.084       .  S
C969        C970   1.346       .  D
C973        C974   1.208       .  T
C977        H979   1.084       .  S
C977        C978   1.347       .  D
C978        H980   1.086       .  S
C981        C982   1.403       .  A
C981        C986   1.399       .  A
C981        H987   1.082       .  S
C982        C983   1.405       .  A
C983        C984   1.397       .  A
C983        H988   1.083       .  S
C984        C985   1.409       .  A
C984        H989   1.081       .  S
C985        C986   1.410       .  A
C986        H990   1.081       .  S
C992        H994   1.087       .  S
C995        C996   1.411       .  A
C995       C1000   1.400       .  A
C995       H1001   1.081       .  S
C996        C997   1.407       .  A
C997        C998   1.396       .  A
C997       H1002   1.080       .  S
C998        C999   1.403       .  A
C998       H1003   1.083       .  S
C999       C1000   1.400       .  A
C1000      H1004   1.083       .  S
C1005      H1007   1.086       .  S
C1005      C1006   1.348       .  D
C1006      H1008   1.082       .  S
C1009      C1010   1.405       .  A
C1009      C1014   1.397       .  A
C1009      H1015   1.083       .  S
C1011      C1012   1.399   1_545  A
C1011      H1016   1.083       .  S
C1012      C1013   1.403       .  A
C1012      H1017   1.083       .  S
C1014      H1018   1.083       .  S
C1019      C1020   1.412       .  A
C1019      C1024   1.402       .  A
C1019      H1025   1.079       .  S
C1020      C1021   1.409       .  A
C1021      C1022   1.395       .  A
C1021      H1026   1.083       .  S
C1022      C1023   1.401       .  A
C1022      H1027   1.083       .  S
C1023      C1024   1.402       .  A
C1024      H1028   1.083       .  S
C1029      H1031   1.087       .  S
C1030      H1032   1.087       .  S
C1033      C1034   1.403       .  A
C1033      C1038   1.397       .  A
C1033      H1039   1.083       .  S
C1034      C1035   1.401       .  A
C1035      C1036   1.400       .  A
C1035      H1040   1.083       .  S
C1036      C1037   1.409       .  A
C1036      H1041   1.082       .  S
C1037      C1038   1.406       .  A
C1038      H1042   1.081       .  S
C1043      C1048   1.395       .  A
C1043      H1049   1.083       .  S
C1044      C1045   1.401       .  A
C1045      C1046   1.399       .  A
C1045      H1050   1.083       .  S
C1046      H1051   1.083       .  S
C1047      C1048   1.402       .  A
C1048      H1052   1.083       .  S
C1053      C1054   1.405       .  A
C1053      C1058   1.405       .  A
C1053      H1059   1.081       .  S
C1054      C1055   1.406       .  A
C1055      C1056   1.394       .  A
C1055      H1060   1.082       .  S
C1056      C1057   1.407       .  A
C1056      H1061   1.081       .  S
C1057      C1058   1.412       .  A
C1058      H1062   1.082       .  S
C1063      C1064   1.406       .  A
C1063      C1068   1.397       .  A
C1063      H1069   1.081       .  S
C1064      C1065   1.411       .  A
C1065      C1066   1.401       .  A
C1065      H1070   1.081       .  S
C1066      C1067   1.401       .  A
C1066      H1071   1.083       .  S
C1067      C1068   1.405       .  A
C1068      H1072   1.083       .  S
C1073      C1074   1.404       .  A
C1073      C1078   1.397       .  A
C1073      H1079   1.083       .  S
C1074      C1075   1.401       .  A
C1075      C1076   1.402       .  A
C1075      H1080   1.083       .  S
C1076      C1077   1.410       .  A
C1076      H1081   1.082       .  S
C1077      C1078   1.407       .  A
C1078      H1082   1.081       .  S
C1083      C1084   1.399       .  A
C1083      C1088   1.395       .  A
C1083      H1089   1.082       .  S
C1085      C1086   1.398       .  A
C1085      H1090   1.083       .  S
C1086      C1087   1.403       .  A
C1086      H1091   1.083       .  S
C1088      H1092   1.083       .  S
C1093      C1098   1.399       .  A
C1093      H1099   1.083       .  S
C1094      C1095   1.402       .  A
C1095      C1096   1.402       .  A
C1095      H1100   1.083       .  S
C1096      H1101   1.083       .  S
C1097      C1098   1.403       .  A
C1098      H1102   1.082       .  S
C1103      C1104   1.401       .  A
C1103      C1108   1.395       .  A
C1103      H1109   1.083       .  S
C1104      C1105   1.402       .  A
C1105      C1106   1.401       .  A
C1105      H1110   1.081       .  S
C1106      C1107   1.412       .  A
C1106      H1111   1.078       .  S
C1107      C1108   1.409       .  A
C1108      H1112   1.083       .  S
C1113      H1115   1.085       .  S
C1113      C1114   1.349       .  D
C1114      H1116   1.086       .  S
C1117      H1119   1.086       .  S
C1117      C1118   1.350       .  D
C1118      H1120   1.084       .  S
C1121      C1122   1.210   1_556  T
C1123      H1125   1.087       .  S
C1124      H1126   1.087   1_565  S
C1127      C1128   1.207       .  T
C1130      H1132   1.087       .  S
C1133      C1134   1.206       .  T
C1137      C1138   1.401       .  A
C1137      C1142   1.394       .  A
C1137      H1143   1.083       .  S
C1138      C1139   1.406       .  A
C1139      C1140   1.394       .  A
C1139      H1144   1.083       .  S
C1140      C1141   1.398       .  A
C1140      H1145   1.082       .  S
C1141      C1142   1.401       .  A
C1142      H1146   1.083       .  S
C1147      H1149   1.087       .  S
C1147      C1148   1.338       .  D
C1148      H1150   1.087       .  S
C1151      C1152   1.411       .  A
C1151      C1156   1.403       .  A
C1151      H1157   1.082       .  S
C1153      C1154   1.400       .  A
C1153      H1158   1.083       .  S
C1154      C1155   1.410       .  A
C1154      H1159   1.082       .  S
C1156      H1160   1.083       .  S
C1161      C1162   1.409       .  A
C1161      C1166   1.396       .  A
C1161      H1167   1.083       .  S
C1162      C1163   1.413       .  A
C1163      C1164   1.401       .  A
C1163      H1168   1.079       .  S
C1164      C1165   1.401       .  A
C1164      H1169   1.083       .  S
C1165      C1166   1.401       .  A
C1166      H1170   1.083       .  S
C1171      C1172   1.346       .  D
C1172      H1174   1.084       .  S
C1175      C1176   1.399       .  A
C1175      C1180   1.399       .  A
C1175      H1181   1.083       .  S
C1176      C1177   1.400       .  A
C1177      C1178   1.397       .  A
C1177      H1182   1.083       .  S
C1178      C1179   1.406       .  A
C1178      H1183   1.079       .  S
C1179      C1180   1.408       .  A
C1180      H1184   1.082       .  S
C1185      C1186   1.404       .  A
C1185      C1190   1.400       .  A
C1185      H1191   1.083       .  S
C1186      C1187   1.406       .  A
C1187      C1188   1.395       .  A
C1187      H1192   1.083       .  S
C1188      C1189   1.402       .  A
C1188      H1193   1.083       .  S
C1189      C1190   1.406       .  A
C1190      H1194   1.083       .  S
C1195      H1197   1.087       .  S
C1195      C1196   1.344       .  D
C1196      H1198   1.087       .  S
C1199      C1204   1.395       .  A
C1199      H1205   1.082       .  S
C1200      C1201   1.409       .  A
C1201      C1202   1.399       .  A
C1201      H1206   1.082       .  S
C1202      H1207   1.083       .  S
C1203      C1204   1.403       .  A
C1204      H1208   1.083       .  S
C1209      C1210   1.402   1_545  A
C1209      H1215   1.083       .  S
C1210      C1211   1.403       .  A
C1211      H1216   1.083       .  S
C1212      C1213   1.409       .  A
C1212      H1217   1.074       .  S
C1213      C1214   1.414       .  A
C1214      H1218   1.078       .  S
C1219      C1220   1.410       .  A
C1219      C1224   1.398       .  A
C1219      H1225   1.083       .  S
C1220      C1221   1.411       .  A
C1221      C1222   1.398       .  A
C1221      H1226   1.077       .  S
C1222      C1223   1.399       .  A
C1222      H1227   1.079       .  S
C1223      C1224   1.402       .  A
C1224      H1228   1.083       .  S
C1229      H1231   1.086   1_565  S
C1229      C1230   1.345       .  D
