geometry optimzed in LAMMPS
_audit_creation_date              2020-11-30 
_audit_creation_method            'lammps2cif' 
_symmetry_space_group_name_H-M    'P1' 
_symmetry_Int_Tables_number       1 
_symmetry_cell_setting            triclinic 
loop_ 
_symmetry_equiv_pos_as_xyz 
  x,y,z 
_cell_length_a                    50.92775895 
_cell_length_b                    46.977687684846025 
_cell_length_c                    97.74907449969729 
_cell_angle_alpha                 87.10109773107617 
_cell_angle_beta                  89.01831158710976 
_cell_angle_gamma                 120.05145797484957 
loop_ 
_atom_site_label 
_atom_site_type_symbol 
_atom_site_fract_x 
_atom_site_fract_y 
_atom_site_fract_z 
_atom_site_charge 
C1          C  0.04462624  0.44443165  0.11911797     0.80100
N2          N  0.09926430  0.01142137  0.12557044    -0.78200
C3          C  0.12071002  0.01827174  0.13492191     0.82600
N4          N  0.08191536  0.46168586  0.14024268    -0.78100
C5          C  0.07376881  0.43307243  0.13446674     0.82700
N6          N  0.05521303  0.42438782  0.12373077    -0.79900
C7          C  0.20004747  0.25053566  0.19986607     0.80100
N8          N  0.19407017  0.27261871  0.19319960    -0.78200
C9          C  0.19060270  0.27187921  0.17944044     0.82600
N10         N  0.19303891  0.24911044  0.17244956    -0.78100
C11         C  0.20023654  0.22788914  0.17886972     0.82700
N12         N  0.20331257  0.22845330  0.19264698    -0.79900
C13         C  0.02429312  0.20027376  0.10826170     0.80100
N14         N  0.04402283  0.22653905  0.11509710    -0.78200
C15         C  0.03634770  0.23047953  0.12793853     0.82600
N16         N  0.00942571  0.20770296  0.13415297    -0.78100
C17         C  0.48473960  0.17385825  0.13254318     0.82700
N18         N  0.48878523  0.17356043  0.11877317    -0.79900
C19         C  0.26479463  0.99515215  0.20595538     0.80100
N20         N  0.23622477  0.48842537  0.19082822    -0.78200
C21         C  0.23981091  0.48017179  0.17811251     0.82600
N22         N  0.27846297  0.97896369  0.18168127    -0.78100
C23         C  0.30059813  0.00407096  0.18824991     0.82700
N24         N  0.29351719  0.01199551  0.20037498    -0.79900
C25         C  0.96337301  0.28289201  0.19602110     0.80100
N26         N  0.99096653  0.29182578  0.19027157    -0.78200
C27         C  0.99920600  0.30596669  0.17731388     0.82600
N28         N  0.97961082  0.31190280  0.17003171    -0.78100
C29         C  0.95171795  0.30306112  0.17578922     0.82700
N30         N  0.44222893  0.29361741  0.18561561    -0.79900
C31         C  0.29111771  0.38653571  0.11171526     0.80100
N32         N  0.26837787  0.38779599  0.11842902    -0.78200
C33         C  0.26198565  0.37891886  0.13202868     0.82600
N34         N  0.27887829  0.36844236  0.13910684    -0.78100
C35         C  0.30243093  0.36778638  0.13243566     0.82700
N36         N  0.30807884  0.37665731  0.11880041    -0.79900
Zr37       Zr  0.18772024  0.36870833  0.16613262     2.17500
O38         O  0.21938686  0.38254948  0.18593594    -0.51400
O39         O  0.22927195  0.37388057  0.15112230    -0.74600
O40         O  0.19180385  0.32231810  0.17555898    -0.81400
O41         O  0.19208304  0.45182681  0.16897450    -0.83200
O42         O  0.15901095  0.27834899  0.16400362    -0.78800
O43         O  0.21917885  0.42555998  0.17201248    -0.90400
O44         O  0.21654247  0.37877574  0.12933175    -0.76400
O45         O  0.17087300  0.33755108  0.14649717    -0.85900
O46         O  0.18377329  0.40336692  0.14857905    -0.85600
O47         O  0.13904524  0.32188714  0.17352264    -0.72300
O48         O  0.15140526  0.38248670  0.17510698    -0.84500
Zr49       Zr  0.08152588  0.33790096  0.14433344     2.26400
Zr50       Zr  0.12274344  0.29109647  0.15351483     2.06300
Zr51       Zr  0.14697840  0.41622198  0.15715653     2.10000
Zr52       Zr  0.16625495  0.37186326  0.12916692     1.78800
O53         O  0.13599933  0.44657966  0.17361245    -0.93300
O54         O  0.16530267  0.33454247  0.11251536    -0.41100
O55         O  0.12967788  0.38548306  0.13734086    -0.77700
O56         O  0.11797795  0.32444946  0.13538257    -0.96400
O57         O  0.08528234  0.30339861  0.16195425    -0.89700
O58         O  0.09840080  0.36986254  0.16384437    -0.92500
C59         C  0.23446534  0.37737374  0.13805029     1.01200
C60         C  0.21548914  0.45056540  0.17271762     1.14100
C61         C  0.18015031  0.29231853  0.17245963     1.04900
O62         O  0.13702783  0.26473327  0.13641103    -0.94700
O63         O  0.07926934  0.25542154  0.14086626    -0.90400
O64         O  0.05425586  0.28314022  0.13570685    -0.83600
C65         C  0.05785384  0.25803164  0.13538637     1.11600
O66         O  0.11913053  0.33242158  0.20428153    -0.96700
Zr67       Zr  0.10235685  0.33557791  0.18132246     1.88900
O68         O  0.03617039  0.32151722  0.15895746    -0.73300
O69         O  0.09366095  0.24077078  0.16826027    -0.52600
O70         O  0.07525653  0.27994986  0.19234404    -0.97300
O71         O  0.09818535  0.37300034  0.19645615    -0.54500
O72         O  0.04917315  0.31919363  0.18092164    -0.73800
C73         C  0.03005329  0.31623073  0.17194273     0.98500
O74         O  0.05294821  0.33564349  0.12422379    -0.62700
O75         O  0.17583455  0.46435002  0.14122590    -0.57500
O76         O  0.07474586  0.38334442  0.13644971    -0.94100
O77         O  0.10980146  0.42776798  0.14709588    -0.92600
O78         O  0.19954512  0.42683346  0.11836031    -0.92900
O79         O  0.14813374  0.38106890  0.10740113    -0.91700
C80         C  0.08682165  0.41331597  0.13959964     1.17300
H81         H  0.20311979  0.42305175  0.14634862     0.33300
H82         H  0.11081531  0.31241741  0.12726269     0.44100
H83         H  0.08457794  0.37717836  0.16663148     0.37700
H84         H  0.14047151  0.30872495  0.18105690     0.34100
H85         H  0.18024947  0.34908525  0.10511913     0.25900
H86         H  0.10063590  0.22572006  0.16526755     0.31900
H87         H  0.05807709  0.26720692  0.18647105     0.37800
H88         H  0.21052856  0.42342195  0.11073997     0.32200
H89         H  0.16414501  0.45910205  0.13281913     0.31100
H90         H  0.14441686  0.46900858  0.16912353     0.32800
H91         H  0.08640345  0.38137239  0.19146407     0.31800
H92         H  0.13948544  0.39525266  0.10941855     0.35800
H93         H  0.06033863  0.32700663  0.11698213     0.28500
H94         H  0.23543303  0.37726049  0.18367233     0.32700
H95         H  0.10099475  0.32476369  0.21053189     0.35600
H96         H  0.17325738  0.48191521  0.14510174     0.28200
H97         H  0.03171432  0.31808032  0.12656459     0.41100
H98         H  0.12878552  0.24179405  0.14027065     0.31100
H99         H  0.17490041  0.32296898  0.11705436     0.38700
H100        H  0.11898438  0.39226630  0.19640843     0.30600
H101        H  0.10183494  0.24669119  0.17745462     0.30700
H102        H  0.20661226  0.36615294  0.19344993     0.30900
Zr103      Zr  0.29755263  0.17938468  0.35186143     2.17500
O104        O  0.28532155  0.13715112  0.37032851    -0.51400
O105        O  0.31446477  0.22639088  0.36548147    -0.74600
O106        O  0.34392376  0.18576275  0.36112783    -0.81400
O107        O  0.21769021  0.16706284  0.35141766    -0.83200
O108        O  0.37808709  0.19577605  0.34373637    -0.78800
O109        O  0.25220238  0.16524976  0.36547879    -0.90400
O110        O  0.33212089  0.27231080  0.35094537    -0.76400
O111        O  0.34009584  0.22062657  0.33835922    -0.85900
O112        O  0.28122826  0.21418194  0.34119171    -0.85600
O113        O  0.31050712  0.14968636  0.33648211    -0.72300
O114        O  0.25483115  0.14435795  0.33899800    -0.84500
Zr115      Zr  0.29498655  0.19146673  0.29858671     2.26400
Zr116      Zr  0.35266680  0.19177294  0.32251764     2.06300
Zr117      Zr  0.23956111  0.18000824  0.32779925     2.10000
Zr118      Zr  0.32384022  0.25512441  0.32762005     1.78800
O119        O  0.18774239  0.13434936  0.32700897    -0.93300
O120        O  0.37743171  0.29654288  0.32819667    -0.41100
O121        O  0.28226956  0.22132180  0.31396397    -0.77700
O122        O  0.33752701  0.22753750  0.31136368    -0.96400
O123        O  0.31094799  0.15656871  0.30931188    -0.89700
O124        O  0.25180516  0.15058204  0.31199629    -0.92500
C125        C  0.32640001  0.25754046  0.36294008     1.01200
C126        C  0.22635210  0.16255687  0.36323668     1.14100
C127        C  0.37033130  0.19262356  0.35653555     1.04900
O128        O  0.40482439  0.23730070  0.32025528    -0.94700
O129        O  0.37392187  0.19996321  0.29916767    -0.90400
O130        O  0.33893455  0.20018275  0.28508656    -0.83600
C131        C  0.36470018  0.20266035  0.28728181     1.11600
O132        O  0.25432398  0.07453870  0.34189063    -0.96700
Zr133      Zr  0.26812049  0.11618243  0.32302777     1.88900
O134        O  0.27408192  0.14344596  0.28534989    -0.73300
O135        O  0.36783414  0.15019798  0.32227445    -0.52600
O136        O  0.28966334  0.08057029  0.32066875    -0.97300
O137        O  0.21384873  0.07633590  0.32362072    -0.54500
O138        O  0.26086922  0.09877497  0.29984015    -0.73800
C139        C  0.26409064  0.11256348  0.28781149     0.98500
O140        O  0.30734057  0.23110802  0.27899654    -0.62700
O141        O  0.22334445  0.21999845  0.33127291    -0.57500
O142        O  0.25372756  0.19574503  0.28907109    -0.94100
O143        O  0.22084546  0.19096376  0.30634412    -0.92600
O144        O  0.29740496  0.28595987  0.32979149    -0.92900
O145        O  0.33996644  0.29767466  0.30896812    -0.91700
C146        C  0.22984911  0.19542550  0.29362419     1.17300
H147        H  0.27468650  0.22407924  0.34787808     0.33300
H148        H  0.35379379  0.24381185  0.30522556     0.44100
H149        H  0.23495285  0.13827544  0.30629988     0.37700
H150        H  0.31662240  0.13598959  0.34158013     0.34100
H151        H  0.37757331  0.31657380  0.33101309     0.25900
H152        H  0.36348650  0.14201612  0.31297502     0.31900
H153        H  0.31189551  0.09566586  0.32029817     0.37800
H154        H  0.28274582  0.27858280  0.32242477     0.32200
H155        H  0.20111027  0.20650683  0.33316070     0.31100
H156        H  0.18804408  0.11539389  0.33174738     0.32800
H157        H  0.21262058  0.05531681  0.32151269     0.31800
H158        H  0.33106013  0.28541008  0.30075138     0.35800
H159        H  0.32885403  0.24823385  0.27981378     0.28500
H160        H  0.29545319  0.14934174  0.37839767     0.32700
H161        H  0.24247347  0.07927048  0.34860871     0.35600
H162        H  0.23148770  0.22924500  0.34012755     0.28200
H163        H  0.30730822  0.21943863  0.27082829     0.41100
H164        H  0.40300773  0.25733537  0.31995923     0.31100
H165        H  0.38482760  0.28928819  0.33619367     0.38700
H166        H  0.20612862  0.08247849  0.31543567     0.30600
H167        H  0.39028692  0.16290743  0.32230175     0.30700
H168        H  0.29663183  0.12597831  0.36777663     0.30900
C169        C  0.28665072  0.94286944  0.52161408     0.80100
N170        N  0.31352448  0.95190378  0.51496380    -0.78200
C171        C  0.32333147  0.97318462  0.50360964     0.82600
N172        N  0.30586871  0.98596371  0.49893042    -0.78100
C173        C  0.27846834  0.97658146  0.50548620     0.82700
N174        N  0.26930228  0.95497994  0.51664496    -0.79900
C175        C  0.13559547  0.09657068  0.45794410     0.80100
N176        N  0.10849080  0.08935172  0.46383358    -0.78200
C177        C  0.09809088  0.07113526  0.47599808     0.82600
N178        N  0.11493644  0.05937160  0.48223253    -0.78100
C179        C  0.14261003  0.06714455  0.47649337     0.82700
N180        N  0.15248549  0.08538887  0.46432560    -0.79900
C181        C  0.06995195  0.20387189  0.53220290     0.80100
N182        N  0.09819570  0.22212767  0.52621762    -0.78200
C183        C  0.10614629  0.21224745  0.51487411     0.82600
N184        N  0.08529633  0.18436342  0.50927762    -0.78100
C185        C  0.05694213  0.16596040  0.51528247     0.82700
N186        N  0.04940726  0.17555809  0.52686199    -0.79900
C187        C  0.34883572  0.35943978  0.45104451     0.80100
N188        N  0.32222411  0.34002672  0.45826652    -0.78200
C189        C  0.31613083  0.34910215  0.47031694     0.82600
N190        N  0.33711161  0.37837232  0.47505989    -0.78100
C191        C  0.36378655  0.39808749  0.46773481     0.82700
N192        N  0.36937719  0.38862584  0.45567978    -0.79900
C193        C  0.45480186  0.37496377  0.53741983     0.80100
N194        N  0.44229645  0.34711341  0.53052502    -0.78200
C195        C  0.42891169  0.34600587  0.51849146     0.82600
N196        N  0.42856638  0.37320313  0.51336274    -0.78100
C197        C  0.44106874  0.40102606  0.52021202     0.82700
N198        N  0.45460111  0.40204463  0.53211166    -0.79900
C199        C  0.98324127  0.18818920  0.43806440     0.80100
N200        N  0.98743614  0.21447461  0.44492847    -0.78200
C201        C  0.99173138  0.21533776  0.45859836     0.82600
N202        N  0.99206635  0.18964855  0.46542392    -0.78100
C203        C  0.98853477  0.16363803  0.45863065     0.82700
N204        N  0.98367341  0.16274240  0.44504003    -0.79900
Zr205      Zr  0.41660854  0.47776161  0.49977802     2.17500
O206        O  0.38842198  0.44828453  0.52106889    -0.51400
O207        O  0.38410027  0.43527798  0.48509376    -0.74600
O208        O  0.37068641  0.48153460  0.50247563    -0.81400
O209        O  0.47408151  0.45405251  0.51093720    -0.83200
O210        O  0.36768129  0.01180797  0.49008985    -0.78800
O211        O  0.42314820  0.43327663  0.50939576    -0.90400
O212        O  0.40934860  0.44831049  0.46427170    -0.76400
O213        O  0.41250953  0.99438215  0.47691637    -0.85900
O214        O  0.45335980  0.47551348  0.48510367    -0.85600
O215        O  0.42400002  0.02567572  0.50327954    -0.72300
O216        O  0.46426899  0.00763736  0.50915168    -0.84500
Zr217      Zr  0.01385622  0.08889703  0.48119510     2.26400
Zr218      Zr  0.42011059  0.04758358  0.48124095     2.06300
Zr219      Zr  0.50073872  0.50362301  0.49593239     2.10000
Zr220      Zr  0.45393709  0.50273542  0.46390210     1.78800
O221        O  0.04003382  0.50989847  0.50814158    -0.93300
O222        O  0.41928998  0.99748801  0.44451685    -0.41100
O223        O  0.50022757  0.03332944  0.47212457    -0.77700
O224        O  0.45943775  0.05205666  0.46581881    -0.96400
O225        O  0.46758071  0.08321881  0.49093055    -0.89700
O226        O  0.01070894  0.06147740  0.50286282    -0.92500
C227        C  0.38704690  0.42926376  0.47270739     1.01200
C228        C  0.44625474  0.43150426  0.51323518     1.14100
C229        C  0.35459710  0.98512747  0.49790855     1.04900
O230        O  0.39059406  0.03887193  0.46094463    -0.94700
O231        O  0.44153143  0.10188326  0.46985868    -0.90400
O232        O  0.00599249  0.13060070  0.46920057    -0.83600
C233        C  0.46778751  0.12488071  0.46524740     1.11600
O234        O  0.44576901  0.03653546  0.53477455    -0.96700
Zr235      Zr  0.47201015  0.06145114  0.51256323     1.88900
O236        O  0.04020752  0.13048403  0.49733723    -0.73300
O237        O  0.40094667  0.07981325  0.49194138    -0.52600
O238        O  0.44635051  0.09021886  0.52027068    -0.97300
O239        O  0.99566193  0.05260162  0.53518458    -0.54500
O240        O  0.01197421  0.11480545  0.51744082    -0.73800
C241        C  0.03494105  0.13518453  0.50963873     0.98500
O242        O  0.05426472  0.12359680  0.46400760    -0.62700
O243        O  0.50755378  0.46015169  0.48697598    -0.57500
O244        O  0.05846170  0.08304577  0.47770132    -0.94100
O245        O  0.05211427  0.03672162  0.48935802    -0.92600
O246        O  0.47444081  0.47019078  0.45473055    -0.92900
O247        O  0.48021337  0.02405437  0.44044784    -0.91700
C248        C  0.06785472  0.06324457  0.48161583     1.17300
H249        H  0.44800109  0.45299431  0.48387273     0.33300
H250        H  0.45900133  0.06225391  0.45705961     0.44100
H251        H  0.02959616  0.07239896  0.50744411     0.37700
H252        H  0.40835739  0.02353303  0.50968343     0.34100
H253        H  0.41985284  0.48870310  0.43980261     0.25900
H254        H  0.38152801  0.07372533  0.48762864     0.31900
H255        H  0.95604386  0.11179517  0.51584007     0.37800
H256        H  0.46318674  0.44842038  0.45989077     0.32200
H257        H  0.03027837  0.48753832  0.47030893     0.31100
H258        H  0.04705837  0.49511746  0.50484771     0.32800
H259        H  0.01757713  0.06572350  0.53248839     0.31800
H260        H  0.50072219  0.04110120  0.44290854     0.35800
H261        H  0.04419613  0.12067124  0.45519263     0.28500
H262        H  0.36728835  0.43368436  0.51847981     0.32700
H263        H  0.45210391  0.05505821  0.54076091     0.35600
H264        H  0.52840105  0.46570084  0.48923203     0.28200
H265        H  0.06131456  0.14668560  0.46607371     0.41100
H266        H  0.37233132  0.03950530  0.46411084     0.31100
H267        H  0.40348255  0.49953328  0.45027702     0.38700
H268        H  0.99082053  0.02938393  0.53523215     0.30600
H269        H  0.39504234  0.07029808  0.50151993     0.30700
H270        H  0.38771019  0.46529202  0.52638072     0.30900
C271        C  0.25413949  0.31579583  0.77222100     0.80100
N272        N  0.25387107  0.34051804  0.77869900    -0.78200
C273        C  0.26030950  0.34441888  0.79208993     0.82600
N274        N  0.26716247  0.32339526  0.79894755    -0.78100
C275        C  0.26715774  0.29840651  0.79262306     0.82700
N276        N  0.26082355  0.29462092  0.77916311    -0.79900
C277        C  0.39724668  0.11255701  0.85452999     0.80100
N278        N  0.39156963  0.08676749  0.84693075    -0.78200
C279        C  0.37545998  0.08137619  0.83546439     0.82600
N280        N  0.36512113  0.10195413  0.83173403    -0.78100
C281        C  0.37046412  0.12753072  0.83924957     0.82700
N282        N  0.38639729  0.13279258  0.85072710    -0.79900
C283        C  0.18413084  0.05156493  0.78007533     0.80100
N284        N  0.20614502  0.07954553  0.78520218    -0.78200
C285        C  0.20379412  0.08540443  0.79852292     0.82600
N286        N  0.17993285  0.06274958  0.80681194    -0.78100
C287        C  0.15826305  0.03437400  0.80177730     0.82700
N288        N  0.16046883  0.02913972  0.78842034    -0.79900
C289        C  0.42217376  0.36347397  0.86826039     0.80100
N290        N  0.45174010  0.38094961  0.86361606    -0.78200
C291        C  0.46119660  0.37270188  0.85218102     0.82600
N292        N  0.44079779  0.34659801  0.84547065    -0.78100
C293        C  0.41131680  0.32926624  0.84999987     0.82700
N294        N  0.40194851  0.33785738  0.86130934    -0.79900
C295        C  0.15063813  0.16979315  0.86376839     0.80100
N296        N  0.13434324  0.18150194  0.85736589    -0.78200
C297        C  0.14185533  0.19518040  0.84432823     0.82600
N298        N  0.16588467  0.19612697  0.83732992    -0.78100
C299        C  0.18217537  0.18377543  0.84371207     0.82700
N300        N  0.17444639  0.17105960  0.85690566    -0.79900
C301        C  0.48371942  0.27978586  0.78210931     0.80100
N302        N  0.50420370  0.27782948  0.79011849    -0.78200
C303        C  0.49681445  0.26511773  0.80327833     0.82600
N304        N  0.46794047  0.25382574  0.80851658    -0.78100
C305        C  0.44721742  0.25610977  0.80050640     0.82700
N306        N  0.45534729  0.26900999  0.78738039    -0.79900
Zr307      Zr  0.25917955  0.19825689  0.81000941     2.17500
O308        O  0.22667953  0.19320053  0.79111070    -0.51400
O309        O  0.21657078  0.19218683  0.82466593    -0.74600
O310        O  0.22802078  0.14166151  0.80311268    -0.81400
O311        O  0.29695061  0.29123866  0.80876541    -0.83200
O312        O  0.24894659  0.11074041  0.80998449    -0.78800
O313        O  0.26230216  0.24657355  0.79808436    -0.90400
O314        O  0.22868955  0.18670287  0.84650118    -0.76400
O315        O  0.26102556  0.16380338  0.82827180    -0.85900
O316        O  0.27803620  0.23175550  0.82904833    -0.85600
O317        O  0.29332986  0.18080704  0.80154890    -0.72300
O318        O  0.30904881  0.24274395  0.80279307    -0.84500
Zr319      Zr  0.36360374  0.22387502  0.83240156     2.26400
Zr320      Zr  0.29585053  0.14736793  0.82024527     2.06300
Zr321      Zr  0.32775202  0.27537388  0.82209162     2.10000
Zr322      Zr  0.28020368  0.19742845  0.84713123     1.78800
O323        O  0.36495603  0.32410261  0.80817861    -0.93300
O324        O  0.25053645  0.14502475  0.86050174    -0.41100
O325        O  0.33004200  0.24180444  0.84071940    -0.77700
O326        O  0.31413164  0.17912205  0.83984927    -0.96400
O327        O  0.34545456  0.19122275  0.81320215    -0.89700
O328        O  0.36235704  0.25879295  0.81418895    -0.92500
C329        C  0.21070817  0.18762834  0.83770789     1.01200
C330        C  0.27598519  0.27731562  0.80025569     1.14100
C331        C  0.22838880  0.11448346  0.80425878     1.04900
O332        O  0.26796892  0.09930196  0.83629426    -0.94700
O333        O  0.33252296  0.13347986  0.82884242    -0.90400
O334        O  0.37063953  0.17768602  0.83841446    -0.83600
C335        C  0.35709558  0.14760861  0.83530897     1.11600
O336        O  0.32434526  0.22491194  0.77244236    -0.96700
Zr337      Zr  0.34360104  0.22570374  0.79517830     1.88900
O338        O  0.40942599  0.23976585  0.81845556    -0.73300
O339        O  0.30612737  0.11726184  0.80337498    -0.52600
O340        O  0.34784367  0.18649558  0.78121079    -0.97300
O341        O  0.37067553  0.27930974  0.78237744    -0.54500
O342        O  0.39685049  0.24135251  0.79635568    -0.73800
C343        C  0.41585365  0.24475635  0.80551510     0.98500
O344        O  0.38766640  0.22282264  0.85363840    -0.62700
O345        O  0.31271394  0.30784625  0.83539934    -0.57500
O346        O  0.39390884  0.27855353  0.84048909    -0.94100
O347        O  0.36718175  0.30522068  0.83777650    -0.92600
O348        O  0.28132435  0.23997790  0.86077915    -0.92900
O349        O  0.29716269  0.19599572  0.87016374    -0.91700
C350        C  0.38943782  0.30265510  0.84226503     1.17300
H351        H  0.26584461  0.24127435  0.83160873     0.33300
H352        H  0.31584550  0.16604703  0.84735101     0.44100
H353        H  0.38225382  0.27777262  0.81210278     0.37700
H354        H  0.28520996  0.16797905  0.79368725     0.34100
H355        H  0.23669967  0.14830207  0.86661506     0.25900
H356        H  0.29222766  0.09370057  0.80621206     0.31900
H357        H  0.36979016  0.19651049  0.77877483     0.37800
H358        H  0.26064668  0.23002049  0.86513169     0.32200
H359        H  0.31367897  0.30143502  0.84510122     0.31100
H360        H  0.36415904  0.34267409  0.81211714     0.32800
H361        H  0.38975034  0.29216044  0.78712777     0.31800
H362        H  0.31917378  0.21233230  0.86949710     0.35800
H363        H  0.40964275  0.23851903  0.85180457     0.28500
H364        H  0.20572143  0.17662073  0.79442879     0.32700
H365        H  0.34184706  0.23177656  0.76588802     0.35600
H366        H  0.32970933  0.33084061  0.83391869     0.28200
H367        H  0.38087602  0.23325188  0.86031397     0.41100
H368        H  0.27412583  0.10768169  0.84547032     0.31100
H369        H  0.23707750  0.12959014  0.85387731     0.38700
H370        H  0.35861836  0.28998304  0.78435789     0.30600
H371        H  0.29814954  0.12110154  0.79474029     0.30700
H372        H  0.23202878  0.18274335  0.78385687     0.30900
Zr373      Zr  0.48506215  0.03106272  0.96464902     2.17500
O374        O  0.00662303  0.99957462  0.94764830    -0.51400
O375        O  0.46807826  0.05563039  0.94713653    -0.74600
O376        O  0.43862325  0.48649750  0.94997594    -0.81400
O377        O  0.06560548  0.09522111  0.96949154    -0.83200
O378        O  0.39636057  0.45438029  0.96373698    -0.78800
O379        O  0.03669241  0.06077803  0.95343754    -0.90400
O380        O  0.44582346  0.08113463  0.95741176    -0.76400
O381        O  0.43535341  0.01725037  0.97231298    -0.85900
O382        O  0.49040428  0.07979067  0.97362769    -0.85600
O383        O  0.46971372  0.98549993  0.98118817    -0.72300
O384        O  0.02064719  0.02798882  0.98067988    -0.84500
Zr385      Zr  0.45889902  0.03340523  0.01625382     2.26400
Zr386      Zr  0.40698952  0.47864962  0.98586832     2.06300
Zr387      Zr  0.03442617  0.07868732  0.99092034     2.10000
Zr388      Zr  0.44072889  0.06560165  0.98167217     1.78800
O389        O  0.08169118  0.08123600  0.99705353    -0.93300
O390        O  0.39653653  0.56856796  0.97837593    -0.41100
O391        O  0.47523891  0.07929254  0.99976417    -0.77700
O392        O  0.42060162  0.52912352  0.99636378    -0.96400
O393        O  0.43766010  0.48000893  0.00438320    -0.89700
O394        O  0.01190905  0.03208156  0.00715566    -0.92500
C395        C  0.45547018  0.07338201  0.94685226     1.01200
C396        C  0.06138014  0.08481155  0.95734403     1.14100
C397        C  0.41159273  0.46211730  0.95221408     1.04900
O398        O  0.36160677  0.47955371  0.97911818    -0.94700
O399        O  0.37312297  0.45959191  0.00619562    -0.90400
O400        O  0.40067917  0.49291037  0.02274589    -0.83600
C401        C  0.37622298  0.46936827  0.01837587     1.11600
O402        O  0.01032621  0.94997669  0.98214982    -0.96700
Zr403      Zr  0.99745181  0.98151960  0.99714973     1.88900
O404        O  0.47341150  0.00729041  0.03414068    -0.73300
O405        O  0.38125917  0.41900166  0.99023648    -0.52600
O406        O  0.97046221  0.44283274  0.99736254    -0.97300
O407        O  0.04995258  0.99443363  0.99856546    -0.54500
O408        O  0.00246278  0.97514967  0.02162832    -0.73800
C409        C  0.99322232  0.98244267  0.03248475     0.98500
O410        O  0.43693366  0.05414161  0.03260921    -0.62700
O411        O  0.53694278  0.14921272  0.98704797    -0.57500
O412        O  0.49241534  0.08208564  0.02765751    -0.94100
O413        O  0.04451314  0.10461438  0.01288039    -0.92600
O414        O  0.45526754  0.12359222  0.97974755    -0.92900
O415        O  0.41225988  0.08073322  0.99704957    -0.91700
C416        C  0.51689890  0.10960928  0.02475311     1.17300
H417        H  0.49855929  0.09798146  0.96674407     0.33300
H418        H  0.40277477  0.52862281  0.00008303     0.44100
H419        H  0.02566052  0.03591881  0.01442787     0.37700
H420        H  0.44782578  0.46064903  0.97335459     0.34100
H421        H  0.39990296  0.58959088  0.97388683     0.25900
H422        H  0.36237992  0.41045390  0.98517380     0.31900
H423        H  0.98265545  0.43749232  0.00365533     0.37800
H424        H  0.47745895  0.13553970  0.97768384     0.32200
H425        H  0.07927974  0.14678723  0.98659958     0.31100
H426        H  0.08019534  0.07783811  0.00718141     0.32800
H427        H  0.04871307  0.97534301  0.00395791     0.31800
H428        H  0.42293510  0.08483016  0.00573423     0.35800
H429        H  0.41811307  0.05107542  0.02853611     0.28500
H430        H  0.99913093  0.00140018  0.93854929     0.32700
H431        H  0.01634990  0.96298302  0.97320966     0.35600
H432        H  0.53251496  0.15089776  0.97731918     0.28200
H433        H  0.43004895  0.03840292  0.04079890     0.41100
H434        H  0.36653597  0.48966036  0.96960944     0.31100
H435        H  0.38730889  0.55242529  0.97131801     0.38700
H436        H  0.05913456  0.01272196  0.00473039     0.30600
H437        H  0.39392850  0.41206899  0.98521567     0.30700
H438        H  0.99555629  0.97567640  0.95039581     0.30900
Zr439      Zr  0.14096433  0.38358613  0.68108491     2.17500
O440        O  0.12716292  0.34844905  0.70229213    -0.51400
O441        O  0.16148943  0.43194936  0.69425926    -0.74600
O442        O  0.18226846  0.37750037  0.68953601    -0.81400
O443        O  0.05962457  0.36829702  0.68057139    -0.83200
O444        O  0.21555872  0.38469674  0.67207695    -0.78800
O445        O  0.09442003  0.36650757  0.69432748    -0.90400
O446        O  0.17526825  0.47726762  0.68014721    -0.76400
O447        O  0.18403219  0.42444890  0.66767045    -0.85900
O448        O  0.12519933  0.41912516  0.67081871    -0.85600
O449        O  0.15225652  0.35308311  0.66534288    -0.72300
O450        O  0.09815191  0.34865835  0.66826832    -0.84500
Zr451      Zr  0.13750368  0.39748622  0.62786365     2.26400
Zr452      Zr  0.19474718  0.39458221  0.65137266     2.06300
Zr453      Zr  0.08318364  0.38489898  0.65754513     2.10000
Zr454      Zr  0.16797567  0.45958736  0.65706216     1.78800
O455        O  0.03020245  0.34126510  0.65822193    -0.93300
O456        O  0.22252040  0.49756041  0.65725467    -0.41100
O457        O  0.12535846  0.42704807  0.64358907    -0.77700
O458        O  0.18048337  0.43163770  0.64067888    -0.96400
O459        O  0.15270924  0.36134420  0.63804281    -0.89700
O460        O  0.09485498  0.35609668  0.64135839    -0.92500
C461        C  0.17148162  0.46293900  0.69208316     1.01200
C462        C  0.06819492  0.36286183  0.69219295     1.14100
C463        C  0.20636627  0.37869753  0.68474164     1.04900
O464        O  0.24713425  0.43972699  0.65042698    -0.94700
O465        O  0.21531090  0.40373612  0.62788709    -0.90400
O466        O  0.18119909  0.40696941  0.61404060    -0.83600
C467        C  0.20635233  0.40785657  0.61614322     1.11600
O468        O  0.09799633  0.27805841  0.67008719    -0.96700
Zr469      Zr  0.11020554  0.32052926  0.65173183     1.88900
O470        O  0.11769498  0.35061261  0.61420189    -0.73300
O471        O  0.20863584  0.35295725  0.64728114    -0.52600
O472        O  0.13269004  0.28645234  0.64743851    -0.97300
O473        O  0.05552077  0.28244373  0.65331724    -0.54500
O474        O  0.10005835  0.30417830  0.62837577    -0.73800
C475        C  0.10533640  0.31937429  0.61648265     0.98500
O476        O  0.15137580  0.44080850  0.60966929    -0.62700
O477        O  0.06881393  0.42649208  0.66071193    -0.57500
O478        O  0.09287821  0.39516266  0.61856121    -0.94100
O479        O  0.05962339  0.38623386  0.63634042    -0.92600
O480        O  0.14343698  0.49257619  0.65836608    -0.92900
O481        O  0.18653397  0.50439876  0.63924585    -0.91700
C482        C  0.06734558  0.39026379  0.62351932     1.17300
H483        H  0.11888198  0.42896473  0.67763967     0.33300
H484        H  0.19689679  0.44793343  0.63461007     0.44100
H485        H  0.07773587  0.34353733  0.63584116     0.37700
H486        H  0.15750537  0.33834282  0.67019468     0.34100
H487        H  0.22448869  0.51797004  0.66069429     0.25900
H488        H  0.23018478  0.36307098  0.64963594     0.31900
H489        H  0.14649743  0.29738706  0.63922257     0.37800
H490        H  0.15817246  0.51271947  0.66271672     0.32200
H491        H  0.07657789  0.43524079  0.66968212     0.31100
H492        H  0.01849106  0.35283471  0.65878496     0.32800
H493        H  0.04820504  0.28504021  0.64428005     0.31800
H494        H  0.17070788  0.49637307  0.63239542     0.35800
H495        H  0.14086166  0.45268707  0.61242380     0.28500
H496        H  0.14251496  0.36146422  0.70890312     0.32700
H497        H  0.08546732  0.25680206  0.66593658     0.35600
H498        H  0.08183050  0.44477330  0.65388039     0.28200
H499        H  0.17311114  0.45677940  0.61078722     0.41100
H500        H  0.24951190  0.44978051  0.65930852     0.31100
H501        H  0.22955064  0.48850857  0.66478006     0.38700
H502        H  0.04739172  0.29216097  0.65971635     0.30600
H503        H  0.19735416  0.33520606  0.65457829     0.30700
H504        H  0.13090132  0.33030424  0.70026490     0.30900
C505        C  0.51876140  0.30137132  0.74584434    -0.22600
C506        C  0.50651094  0.32012418  0.74047988     0.09400
C507        C  0.48599897  0.32476252  0.74853104     0.09800
C508        C  0.47889531  0.31121279  0.76211642    -0.17500
C509        C  0.49195545  0.29323631  0.76772048    -0.27900
C510        C  0.51180201  0.28778264  0.75935826     0.18100
C511        C  0.51726628  0.33561519  0.72654795     0.12100
C512        C  0.47172394  0.34386131  0.74277855    -0.12300
H513        H  0.46340048  0.31506275  0.76843997     0.12400
C514        C  0.52516224  0.26702464  0.76433083    -0.23100
H515        H  0.04017962  0.29924600  0.74490324     0.08000
C516        C  0.04058847  0.35987540  0.72821132     0.04400
C517        C  0.05576195  0.37172512  0.71532718    -0.20300
C518        C  0.04691239  0.35168857  0.70421076    -0.12600
C519        C  0.02103959  0.31970635  0.70574759     0.13100
C520        C  0.50353546  0.31668740  0.71542971    -0.23100
C521        C  0.05164636  0.38159355  0.74008447    -0.06100
H522        H  0.07566129  0.39617115  0.71408337     0.14600
C523        C  0.50374109  0.30191173  0.69133052    -0.16300
H524        H  0.48229502  0.29358170  0.71717801     0.08900
H525        H  0.54133555  0.27929862  0.77242575     0.06800
H526        H  0.53795833  0.26333836  0.75595535     0.08000
H527        H  0.50673916  0.24232474  0.76836786     0.07000
H528        H  0.45857591  0.33178765  0.73378705     0.01900
H529        H  0.48959352  0.36944414  0.73950305     0.02400
H530        H  0.45603897  0.34504112  0.75046647     0.05900
H531        H  0.07110210  0.40642707  0.73690414     0.04900
H532        H  0.05917571  0.37027333  0.74820495    -0.00900
H533        H  0.03299789  0.38471200  0.74438557     0.00600
H534        H  0.49980161  0.27714787  0.69481673     0.04200
H535        H  0.02390931  0.30730880  0.68463003     0.06200
H536        H  0.48154211  0.29990859  0.68922566     0.07000
C537        C  0.06720822  0.26703038  0.81866278    -0.22600
C538        C  0.05833742  0.23474578  0.82347434     0.09400
C539        C  0.53183756  0.22255094  0.82339501     0.09800
C540        C  0.51040980  0.23019286  0.81810030    -0.17500
C541        C  0.51959036  0.26067867  0.81098521    -0.27900
C542        C  0.04572469  0.27556046  0.81433531     0.18100
C543        C  0.08200728  0.22713133  0.82797701     0.12100
C544        C  0.52108063  0.18967741  0.83105353    -0.12300
H545        H  0.48647434  0.21178178  0.81905283     0.12400
C546        C  0.05647616  0.31101550  0.80973274    -0.23100
H547        H  0.09111962  0.28556774  0.81820549     0.08000
C548        C  0.09412322  0.21262209  0.81946480     0.04400
C549        C  0.11482755  0.20374194  0.82475750    -0.20300
C550        C  0.12381378  0.20935457  0.83833311    -0.12600
C551        C  0.11328850  0.22633599  0.84643593     0.13100
C552        C  0.09245979  0.23474532  0.84114776    -0.23100
C553        C  0.08521299  0.20660373  0.80483144    -0.06100
H554        H  0.12318325  0.19138733  0.81843649     0.14600
C555        C  0.12421653  0.23646022  0.86060089    -0.16300
H556        H  0.08374807  0.24684105  0.84743627     0.08900
H557        H  0.05271277  0.31351617  0.79872646     0.06800
H558        H  0.08115111  0.32713943  0.81111773     0.08000
H559        H  0.54994616  0.33020397  0.80875150     0.07000
H560        H  0.02431409  0.17767808  0.84152800     0.01900
H561        H  0.53031126  0.17586999  0.82585545     0.02400
H562        H  0.49593731  0.17439971  0.83156297     0.05900
H563        H  0.09691477  0.19535743  0.79954472     0.04900
H564        H  0.09144350  0.23036294  0.79913360    -0.00900
H565        H  0.06036472  0.18974134  0.80448926     0.00600
H566        H  0.11641729  0.25286526  0.86457811     0.04200
H567        H  0.14942787  0.25014085  0.86030598     0.06200
H568        H  0.11516070  0.21458044  0.86798195     0.07000
C569        C  0.15589905  0.15499008  0.90203593    -0.22600
C570        C  0.12508426  0.13557583  0.90603698     0.09400
C571        C  0.10291620  0.12660009  0.89613529     0.09800
C572        C  0.11211125  0.13747028  0.88237938    -0.17500
C573        C  0.14292914  0.15710790  0.87827776    -0.27900
C574        C  0.16519708  0.16598431  0.88823330     0.18100
C575        C  0.11598500  0.12542172  0.92068126     0.12100
C576        C  0.06950310  0.10606874  0.90011865    -0.12300
H577        H  0.09509766  0.13085000  0.87477388     0.12400
C578        C  0.19857233  0.18821224  0.88454869    -0.23100
H579        H  0.17264027  0.16187402  0.90977875     0.08000
C580        C  0.10876505  0.09383133  0.92608512     0.04400
C581        C  0.09355045  0.08225099  0.93898369    -0.20300
C582        C  0.08571182  0.10172841  0.94656946    -0.12600
C583        C  0.09555048  0.13451119  0.94170562     0.13100
C584        C  0.11068083  0.14604192  0.92874909    -0.23100
C585        C  0.11589438  0.07189763  0.91797088    -0.06100
H586        H  0.08595117  0.05710488  0.94278219     0.14600
C587        C  0.57758127  0.17067088  0.95018324    -0.16300
H588        H  0.11660299  0.17041160  0.92450944     0.08900
H589        H  0.20671228  0.17597623  0.87761464     0.06800
H590        H  0.21238571  0.19409603  0.89375870     0.08000
H591        H  0.20253692  0.21178932  0.87944257     0.07000
H592        H  0.06302926  0.11906484  0.90744842     0.01900
H593        H  0.06428606  0.08185598  0.90500498     0.02400
H594        H  0.05535879  0.10140434  0.89106551     0.05900
H595        H  0.10875347  0.04797210  0.92374736     0.04900
H596        H  0.14074644  0.08432424  0.91560267    -0.00900
H597        H  0.10396603  0.06671583  0.90822479     0.00600
H598        H  0.58501679  0.19469171  0.94442756     0.04200
H599        H  0.58680838  0.17571482  0.96054442     0.06200
H600        H  0.55238814  0.15698404  0.95115831     0.07000
C601        C  0.37885381  0.38444851  0.89412455    -0.22600
C602        C  0.39793304  0.39222506  0.90515304     0.09400
C603        C  0.42402095  0.38900457  0.90425855     0.09800
C604        C  0.43102138  0.37916086  0.89211597    -0.17500
C605        C  0.41242478  0.37212474  0.88091335    -0.27900
C606        C  0.38573534  0.37435828  0.88196153     0.18100
C607        C  0.39289415  0.40798874  0.91681447     0.12100
C608        C  0.44503817  0.39695430  0.91594513    -0.12300
H609        H  0.45128517  0.37714345  0.89131930     0.12400
C610        C  0.36530535  0.36788078  0.87012690    -0.23100
H611        H  0.35909066  0.38738195  0.89489991     0.08000
C612        C  0.40238752  0.44185015  0.91559705     0.04400
C613        C  0.40474387  0.45819542  0.92746195    -0.20300
C614        C  0.39851451  0.44164274  0.94050964    -0.12600
C615        C  0.38616916  0.40707536  0.94163578     0.13100
C616        C  0.38330032  0.39055556  0.92968189    -0.23100
C617        C  0.41223291  0.46128829  0.90189769    -0.06100
H618        H  0.41379406  0.48463518  0.92662054     0.14600
C619        C  0.37833818  0.38797320  0.95536300    -0.16300
H620        H  0.37577301  0.36445286  0.93044634     0.08900
H621        H  0.37864643  0.38401614  0.86096401     0.06800
H622        H  0.34667451  0.37292198  0.87251827     0.08000
H623        H  0.35467044  0.34166037  0.86773590     0.07000
H624        H  0.43260782  0.38023942  0.92511093     0.01900
H625        H  0.45391249  0.42289506  0.91846710     0.02400
H626        H  0.98240429  0.41580174  0.91089506     0.05900
H627        H  0.42038065  0.48780517  0.90293071     0.04900
H628        H  0.39283624  0.45163335  0.89506832    -0.00900
H629        H  0.43112267  0.45935833  0.89706858     0.00600
H630        H  0.36046920  0.39042818  0.96092477     0.04200
H631        H  0.39888105  0.39745684  0.96147835     0.06200
H632        H  0.36955948  0.36130967  0.95429002     0.07000
C633        C  0.04650046  0.42772158  0.84653931    -0.22600
C634        C  0.04624712  0.43505003  0.83247390     0.09400
C635        C  0.01929820  0.41723974  0.82549631     0.09800
C636        C  0.49458811  0.39834951  0.83134862    -0.17500
C637        C  0.49194088  0.39462796  0.84575175    -0.27900
C638        C  0.51803949  0.41299730  0.85333638     0.18100
C639        C  0.07382351  0.46275079  0.82534064     0.12100
C640        C  0.01818494  0.42391342  0.81033142    -0.12300
H641        H  0.47472052  0.38457350  0.82546869     0.12400
C642        C  0.51708172  0.40936546  0.86877662    -0.23100
H643        H  0.06749786  0.44111065  0.85174141     0.08000
C644        C  0.08187012  0.49580690  0.82695727     0.04400
C645        C  0.10667995  0.52126126  0.81915396    -0.20300
C646        C  0.12324544  0.51438035  0.80959260    -0.12600
C647        C  0.11570653  0.48122856  0.80828516     0.13100
C648        C  0.09112257  0.45584675  0.81624253    -0.23100
C649        C  0.56710731  0.51028951  0.83224428    -0.06100
H650        H  0.11256072  0.54662118  0.82018951     0.14600
C651        C  0.13381902  0.47240363  0.79879978    -0.16300
H652        H  0.08493072  0.43039648  0.81518534     0.08900
H653        H  0.54006075  0.42383100  0.87282125     0.06800
H654        H  0.50785162  0.38308239  0.87227068     0.08000
H655        H  0.50277105  0.41854444  0.87323569     0.07000
H656        H  0.03399186  0.41856395  0.80455618     0.01900
H657        H  0.02480445  0.45013295  0.80810704     0.02400
H658        H  0.99507925  0.40830625  0.80658592     0.05900
H659        H  0.57696730  0.53738415  0.83066049     0.04900
H660        H  0.56612894  0.50401029  0.84340817    -0.00900
H661        H  0.54368833  0.49816501  0.82853600     0.00600
H662        H  0.12646816  0.93485587  0.80412814     0.04200
H663        H  0.16107896  0.97329120  0.80539013     0.06200
H664        H  0.13133751  0.47851657  0.78796763     0.07000
C665        C  0.19433152  0.53384040  0.71553329    -0.22600
C666        C  0.18042752  0.51604867  0.72797266     0.09400
C667        C  0.16572685  0.48140730  0.72884921     0.09800
C668        C  0.16422004  0.46512812  0.71706259    -0.17500
C669        C  0.17703365  0.48256726  0.70430491    -0.27900
C670        C  0.19298562  0.51766760  0.70364147     0.18100
C671        C  0.18072724  0.53387617  0.74000535     0.12100
C672        C  0.15146889  0.46156258  0.74223664    -0.12300
H673        H  0.15210951  0.43842157  0.71783763     0.12400
C674        C  0.20888863  0.53856048  0.69064770    -0.23100
H675        H  0.21539512  0.04229915  0.71662148     0.08000
C676        C  0.20556747  0.54704719  0.74854368     0.04400
C677        C  0.20303195  0.55970290  0.76086841    -0.20300
C678        C  0.18664904  0.04375188  0.76587380    -0.12600
C679        C  0.16161077  0.03170124  0.75734007     0.13100
C680        C  0.16289580  0.01793930  0.74517250    -0.23100
C681        C  0.23405452  0.54624071  0.74494777    -0.06100
H682        H  0.22144137  0.56827608  0.76782972     0.14600
C683        C  0.13325026  0.03304870  0.76066965    -0.16300
H684        H  0.14341834  0.00783695  0.73879726     0.08900
H685        H  0.22184500  0.56522512  0.69245399     0.06800
H686        H  0.19833881  0.02044275  0.68419188     0.08000
H687        H  0.22525511  0.53168810  0.68652546     0.07000
H688        H  0.13321263  0.46599569  0.74597684     0.01900
H689        H  0.16899348  0.46886312  0.74999899     0.02400
H690        H  0.14126432  0.43468314  0.74114824     0.05900
H691        H  0.25112002  0.55707537  0.75286725     0.04900
H692        H  0.24439264  0.56054549  0.73502271    -0.00900
H693        H  0.22852521  0.52036422  0.74406102     0.00600
H694        H  0.12906061  0.04625953  0.75200527     0.04200
H695        H  0.13486222  0.04631821  0.76995020     0.06200
H696        H  0.11353467  0.00761222  0.76217477     0.07000
C697        C  0.44796891  0.11310850  0.88249882    -0.22600
C698        C  0.43071469  0.11143107  0.89413334     0.09400
C699        C  0.40445768  0.11395829  0.89270728     0.09800
C700        C  0.39511909  0.11645417  0.87952955    -0.17500
C701        C  0.41104838  0.11551425  0.86785933    -0.27900
C702        C  0.43825319  0.11477944  0.86931653     0.18100
C703        C  0.43796647  0.10208376  0.90752912     0.12100
C704        C  0.38560652  0.11241756  0.90507816    -0.12300
H705        H  0.37431845  0.11716541  0.87835709     0.12400
C706        C  0.45701715  0.11571577  0.85704618    -0.23100
H707        H  0.46818436  0.11126659  0.88377765     0.08000
C708        C  0.42703204  0.06858922  0.91149602     0.04400
C709        C  0.43354902  0.06014137  0.92437626    -0.20300
C710        C  0.45058658  0.08439331  0.93334613    -0.12600
C711        C  0.46214998  0.11803017  0.92929706     0.13100
C712        C  0.45557736  0.12654142  0.91635165    -0.23100
C713        C  0.40824787  0.04174028  0.90217802    -0.06100
H714        H  0.42491038  0.03441249  0.92757160     0.14600
C715        C  0.48213055  0.14481423  0.93838704    -0.16300
H716        H  0.46411497  0.15219967  0.91309044     0.08900
H717        H  0.44560749  0.67204602  0.86420219     0.06800
H718        H  0.46290639  0.13779412  0.85016293     0.08000
H719        H  0.44418316  0.09321044  0.85139692     0.07000
H720        H  0.39962670  0.13298609  0.91156717     0.01900
H721        H  0.37722360  0.08862122  0.91117479     0.02400
H722        H  0.36561437  0.11444949  0.90212232     0.05900
H723        H  0.49268342  0.58134677  0.89755693     0.04900
H724        H  0.48612220  0.61017925  0.88753192    -0.00900
H725        H  0.38737476  0.04248312  0.89975228     0.00600
H726        H  0.46938669  0.14261297  0.94807508     0.04200
H727        H  0.50233777  0.14268157  0.94077230     0.06200
H728        H  0.49019561  0.16973844  0.93336389     0.07000
C729        C  0.33422755  0.00773758  0.81372548    -0.22600
C730        C  0.28932965  0.45583413  0.82269074     0.09400
C731        C  0.31971200  0.47011754  0.82648009     0.09800
C732        C  0.38862778  0.04087481  0.82700934    -0.17500
C733        C  0.36799443  0.05248379  0.82747392    -0.27900
C734        C  0.34036067  0.03562613  0.82064173     0.18100
C735        C  0.27604369  0.42652807  0.81467385     0.12100
C736        C  0.33858278  0.45445312  0.82344928    -0.12300
H737        H  0.35630769  0.51116146  0.83554851     0.12400
C738        C  0.31639634  0.04555936  0.82101560    -0.23100
H739        H  0.31294407  0.99427796  0.80872800     0.08000
C740        C  0.26140776  0.39455826  0.82112701     0.04400
C741        C  0.25466533  0.36785205  0.81325777    -0.20300
C742        C  0.26233822  0.37254893  0.79910551    -0.12600
C743        C  0.27502668  0.40458258  0.79251033     0.13100
C744        C  0.28165673  0.43118606  0.80044727    -0.23100
C745        C  0.25402050  0.38889618  0.83635741    -0.06100
H746        H  0.24444491  0.34330052  0.81828463     0.14600
C747        C  0.28350587  0.41149579  0.77735786    -0.16300
H748        H  0.36429371  0.98773270  0.78749149     0.08900
H749        H  0.30979630  0.04642047  0.83180741     0.06800
H750        H  0.29551757  0.02784790  0.81602174     0.08000
H751        H  0.32504952  0.06993383  0.81539747     0.07000
H752        H  0.34055906  0.45291765  0.81221902     0.01900
H753        H  0.32771877  0.42926354  0.82857346     0.02400
H754        H  0.36187431  0.46884418  0.82718176     0.05900
H755        H  0.24255267  0.36230186  0.83976972     0.04900
H756        H  0.23866035  0.39834847  0.83908357    -0.00900
H757        H  0.27518013  0.40199277  0.84197942     0.00600
H758        H  0.32686493  0.92656660  0.76602617     0.04200
H759        H  0.29991124  0.40339153  0.77467495     0.06200
H760        H  0.29431153  0.43818972  0.77421213     0.07000
C761        C  0.21868852  0.30934705  0.73837776    -0.22600
C762        C  0.24460577  0.33039212  0.72997359     0.09400
C763        C  0.27371707  0.34132188  0.73493659     0.09800
C764        C  0.27631430  0.33349679  0.74869290    -0.17500
C765        C  0.25036962  0.31486466  0.75740792    -0.27900
C766        C  0.22129728  0.30136522  0.75210632     0.18100
C767        C  0.24050140  0.34504406  0.71706441     0.12100
C768        C  0.30186145  0.36210646  0.72582821    -0.12300
H769        H  0.29859049  0.34366914  0.75287937     0.12400
C770        C  0.19316311  0.27969632  0.76110144    -0.23100
H771        H  0.19638650  0.30085904  0.73442267     0.08000
C772        C  0.23123703  0.32755257  0.70513683     0.04400
C773        C  0.22298203  0.34083453  0.69395091    -0.20300
C774        C  0.22329299  0.37075717  0.69470030    -0.12600
C775        C  0.23430397  0.38912617  0.70633336     0.13100
C776        C  0.24302582  0.37611664  0.71736943    -0.23100
C777        C  0.22920009  0.29457782  0.70443582    -0.06100
H778        H  0.21425344  0.32678062  0.68500587     0.14600
C779        C  0.23618516  0.42206009  0.70721965    -0.16300
H780        H  0.25039187  0.38944058  0.72657699     0.08900
H781        H  0.17221278  0.27100009  0.75530665     0.06800
H782        H  0.19179827  0.29350917  0.76970930     0.08000
H783        H  0.19397029  0.25775813  0.76531479     0.07000
H784        H  0.30302305  0.38552956  0.72225558     0.01900
H785        H  0.30131324  0.34842942  0.71679639     0.02400
H786        H  0.32281388  0.36823711  0.73128566     0.05900
H787        H  0.22170506  0.28427255  0.69432247     0.04900
H788        H  0.21264481  0.27681794  0.71248354    -0.00900
H789        H  0.25183135  0.29726269  0.70607348     0.00600
H790        H  0.21320073  0.41916404  0.70697417     0.04200
H791        H  0.25058056  0.43906416  0.69845024     0.06200
H792        H  0.24631159  0.43355332  0.71685370     0.07000
C793        C  0.41464702  0.26462199  0.50626823    -0.22600
C794        C  0.42644802  0.27460260  0.49271938     0.09400
C795        C  0.43352450  0.30596650  0.48707214     0.09800
C796        C  0.43112784  0.32779616  0.49551532    -0.17500
C797        C  0.42209303  0.31904275  0.50949081    -0.27900
C798        C  0.41196311  0.28636045  0.51470747     0.18100
C799        C  0.43361348  0.25306891  0.48494163     0.12100
C800        C  0.44532987  0.31714152  0.47238943    -0.12300
H801        H  0.43856672  0.35265437  0.49137855     0.12400
C802        C  0.39824528  0.27363631  0.52903298    -0.23100
H803        H  0.40830681  0.24002812  0.51038695     0.08000
C804        C  0.00702584  0.27179700  0.48723616     0.04400
C805        C  0.00916300  0.25075197  0.47819089    -0.20300
C806        C  0.99178780  0.24141363  0.46649891    -0.12600
C807        C  0.42276663  0.21799937  0.46585897     0.13100
C808        C  0.41562806  0.23696548  0.47408391    -0.23100
C809        C  0.02571004  0.28098531  0.49974919    -0.06100
H810        H  0.02402766  0.24097141  0.48041210     0.14600
C811        C  0.40152220  0.20045102  0.45471052    -0.16300
H812        H  0.39589812  0.23927407  0.47201259     0.08900
H813        H  0.41328864  0.26758007  0.53506633     0.06800
H814        H  0.37576538  0.25095360  0.52854959     0.08000
H815        H  0.39436060  0.29144533  0.53446291     0.07000
H816        H  0.42796980  0.30099808  0.46535644     0.01900
H817        H  0.03690074  0.35150602  0.47857720     0.02400
H818        H  0.45067764  0.34284266  0.46979218     0.05900
H819        H  0.04042703  0.26979454  0.50025690     0.04900
H820        H  0.01052897  0.27224123  0.50916037    -0.00900
H821        H  0.04049758  0.30818118  0.49952681     0.00600
H822        H  0.37803641  0.18509974  0.45925121     0.04200
H823        H  0.40707220  0.18374783  0.44939614     0.06200
H824        H  0.40196405  0.21889417  0.44700021     0.07000
C825        C  0.52111822  0.40327783  0.59667436    -0.22600
C826        C  0.51717597  0.38143971  0.58658745     0.09400
C827        C  0.02093274  0.36412634  0.59237425     0.09800
C828        C  0.04040341  0.36692947  0.60278156    -0.17500
C829        C  0.04484532  0.38719103  0.61359914    -0.27900
C830        C  0.02829056  0.40395672  0.61437964     0.18100
C831        C  0.50010070  0.38060749  0.57445962     0.12100
C832        C  0.01881131  0.34414756  0.58038561    -0.12300
H833        H  0.05289650  0.35385955  0.60229125     0.12400
C834        C  0.03260285  0.42746813  0.62521792    -0.23100
H835        H  0.51035676  0.41814958  0.59571117     0.08000
C836        C  0.46932530  0.35646439  0.57352083     0.04400
C837        C  0.45519297  0.35471278  0.56114940    -0.20300
C838        C  0.47114822  0.37694130  0.54987906    -0.12600
C839        C  0.50205508  0.40120267  0.55088288     0.13100
C840        C  0.51599962  0.40288785  0.56325171    -0.23100
C841        C  0.45145569  0.33294561  0.58560453    -0.06100
H842        H  0.43149929  0.33630736  0.56032315     0.14600
C843        C  0.52148806  0.42476029  0.53903678    -0.16300
H844        H  0.02951020  0.43239943  0.57489121     0.08900
H845        H  0.52245229  0.42579097  0.62290561     0.06800
H846        H  0.03855659  0.45184121  0.62020660     0.08000
H847        H  0.05105054  0.43177668  0.63209830     0.07000
H848        H  0.02625396  0.36018920  0.57073021     0.01900
H849        H  0.50437752  0.32027308  0.57599418     0.02400
H850        H  0.03339676  0.33287053  0.58147287     0.05900
H851        H  0.42758275  0.31578066  0.58315020     0.04900
H852        H  0.45120116  0.34707564  0.59432472    -0.00900
H853        H  0.46195055  0.31804466  0.58877872     0.00600
H854        H  0.02249574  0.46822976  0.55414208     0.04200
H855        H  0.50992898  0.41985913  0.52922865     0.06200
H856        H  0.04196018  0.44728980  0.54859248     0.07000
C857        C  0.23999170  0.27566352  0.48347755    -0.22600
C858        C  0.22716286  0.29155854  0.49030259     0.09400
C859        C  0.24407152  0.32595221  0.49126185     0.09800
C860        C  0.27335927  0.34392695  0.48497450    -0.17500
C861        C  0.28603823  0.32830225  0.47765336    -0.27900
C862        C  0.26913955  0.29345971  0.47708943     0.18100
C863        C  0.19597645  0.27141224  0.49645146     0.12100
C864        C  0.23092688  0.34370486  0.49865787    -0.12300
H865        H  0.28605173  0.37046436  0.48546960     0.12400
C866        C  0.28156490  0.27445757  0.47009826    -0.23100
H867        H  0.22687447  0.24910551  0.48304475     0.08000
C868        C  0.17040789  0.25894666  0.48830736     0.04400
C869        C  0.14135188  0.23904936  0.49459198    -0.20300
C870        C  0.13736987  0.23147866  0.50881428    -0.12600
C871        C  0.16318098  0.24335746  0.51691511     0.13100
C872        C  0.19211431  0.26358314  0.51061224    -0.23100
C873        C  0.17375987  0.26722147  0.47305463    -0.06100
H874        H  0.12159345  0.22991107  0.48841600     0.14600
C875        C  0.16146516  0.23419892  0.53206352    -0.16300
H876        H  0.21194738  0.27270611  0.51674565     0.08900
H877        H  0.28391856  0.28020930  0.45884735     0.06800
H878        H  0.26624387  0.24739982  0.47186413     0.08000
H879        H  0.30387969  0.28059559  0.47417368     0.07000
H880        H  0.22576545  0.33451307  0.50961106     0.01900
H881        H  0.20970272  0.33935973  0.49389078     0.02400
H882        H  0.24694031  0.37071383  0.49821584     0.05900
H883        H  0.15139095  0.25603866  0.46829237     0.04900
H884        H  0.18745041  0.25781773  0.46813267    -0.00900
H885        H  0.18524438  0.29436933  0.47095919     0.00600
H886        H  0.17708306  0.22458529  0.53413133     0.04200
H887        H  0.13863788  0.21460611  0.53599885     0.06200
H888        H  0.16854846  0.25639728  0.53789409     0.07000
C889        C  0.10343033  0.29115044  0.58084307    -0.22600
C890        C  0.07380263  0.26429131  0.58108896     0.09400
C891        C  0.05492889  0.25475834  0.59310286     0.09800
C892        C  0.06619574  0.27267127  0.60471705    -0.17500
C893        C  0.09588555  0.29966956  0.60448381    -0.27900
C894        C  0.11499658  0.30868210  0.59246235     0.18100
C895        C  0.06494655  0.24443740  0.56909055     0.12100
C896        C  0.02290115  0.22612174  0.59354979    -0.12300
H897        H  0.05160221  0.26602284  0.61392136     0.12400
C898        C  0.14800186  0.33541757  0.59165053    -0.23100
H899        H  0.11804766  0.29763478  0.57164480     0.08000
C900        C  0.05895603  0.25601060  0.55661867     0.04400
C901        C  0.05806684  0.24031278  0.54468667    -0.20300
C902        C  0.06312486  0.21358825  0.54511853    -0.12600
C903        C  0.06695290  0.20061184  0.55778256     0.13100
C904        C  0.06771455  0.21623915  0.56966318    -0.23100
C905        C  0.05463071  0.28550370  0.55586376    -0.06100
H906        H  0.05516062  0.25003298  0.53488862     0.14600
C907        C  0.07223546  0.17175822  0.55903648    -0.16300
H908        H  0.07247990  0.20765987  0.57930508     0.08900
H909        H  0.15135646  0.35600547  0.58436146     0.06800
H910        H  0.16219893  0.32531640  0.58790639     0.08000
H911        H  0.15654264  0.34522109  0.60168869     0.07000
H912        H  0.02304186  0.20315745  0.59154322     0.01900
H913        H  0.00988217  0.23077882  0.58562671     0.02400
H914        H  0.01107166  0.22233265  0.60370179     0.05900
H915        H  0.04958005  0.29084919  0.54534431     0.04900
H916        H  0.07553190  0.30763500  0.55884015    -0.00900
H917        H  0.03536254  0.28076448  0.56293873     0.00600
H918        H  0.09489227  0.17979975  0.56318286     0.04200
H919        H  0.07137406  0.16090691  0.54913876     0.06200
H920        H  0.05455442  0.15210574  0.56619397     0.07000
C921        C  0.22491274  0.01163852  0.50728029    -0.22600
C922        C  0.22026282  0.01554044  0.49343630     0.09400
C923        C  0.23563462  0.00781040  0.48340136     0.09800
C924        C  0.25519924  0.99608883  0.48750739    -0.17500
C925        C  0.25925337  0.99121395  0.50145539    -0.27900
C926        C  0.24376139  0.99927328  0.51146965     0.18100
C927        C  0.19940993  0.02818311  0.48982731     0.12100
C928        C  0.23270452  0.51714506  0.46486467    -0.12300
H929        H  0.27101661  0.50120616  0.47769728     0.12400
C930        C  0.24709679  0.99554907  0.52667485    -0.23100
H931        H  0.21322494  0.01786991  0.51489694     0.08000
C932        C  0.16816457  0.00675874  0.48803356     0.04400
C933        C  0.14959947  0.01998138  0.48428540    -0.20300
C934        C  0.16142802  0.05419602  0.48265431    -0.12600
C935        C  0.19214320  0.07550826  0.48559379     0.13100
C936        C  0.21079074  0.06227625  0.48900197    -0.23100
C937        C  0.16194183  0.49129322  0.49187757    -0.06100
H938        H  0.13258339  0.52199123  0.48167147     0.14600
C939        C  0.20518382  0.11220960  0.48546640    -0.16300
H940        H  0.23444591  0.07861061  0.49099303     0.08900
H941        H  0.23616009  0.96907898  0.53018444     0.06800
H942        H  0.23590038  0.00621672  0.53275150     0.08000
H943        H  0.27150031  0.00848263  0.52899434     0.07000
H944        H  0.23890786  0.54128174  0.45953486     0.01900
H945        H  0.20782258  0.50033583  0.46453707     0.02400
H946        H  0.24436134  0.50634173  0.45921784     0.05900
H947        H  0.13673623  0.47852847  0.49229111     0.04900
H948        H  0.15758007  0.96357159  0.50092570    -0.00900
H949        H  0.16916926  0.47677972  0.48584687     0.00600
H950        H  0.22872060  0.12491286  0.48903801     0.04200
H951        H  0.19099314  0.11778798  0.49234328     0.06200
H952        H  0.20594180  0.12228499  0.47492178     0.07000
C953        C  0.25353169  0.45079509  0.58385830    -0.22600
C954        C  0.25099472  0.42388039  0.57721386     0.09400
C955        C  0.23795101  0.39259113  0.58430065     0.09800
C956        C  0.22575969  0.38843357  0.59772142    -0.17500
C957        C  0.22628393  0.41491558  0.60397460    -0.27900
C958        C  0.24125962  0.44669610  0.59718711     0.18100
C959        C  0.26000529  0.42899151  0.56249798     0.12100
C960        C  0.23593771  0.36356925  0.57750148    -0.12300
H961        H  0.21420943  0.36413125  0.60302384     0.12400
C962        C  0.24389051  0.47652948  0.60356516    -0.23100
H963        H  0.26269201  0.95214310  0.57641674     0.08000
C964        C  0.23984678  0.42783482  0.55257341     0.04400
C965        C  0.25064275  0.43811864  0.53892340    -0.20300
C966        C  0.27791853  0.92456238  0.53533153    -0.12600
C967        C  0.29950223  0.92911221  0.54526557     0.13100
C968        C  0.28992567  0.43855570  0.55856462    -0.23100
C969        C  0.20724491  0.41697528  0.55651073    -0.06100
H970        H  0.23522677  0.43810662  0.53141297     0.14600
C971        C  0.33316026  0.94761897  0.54185812    -0.16300
H972        H  0.30502462  0.43905969  0.56635671     0.08900
H973        H  0.23195502  0.48659477  0.59735737     0.06800
H974        H  0.27002592  0.98030066  0.60024562     0.08000
H975        H  0.23417630  0.47105627  0.61424215     0.07000
H976        H  0.25911744  0.36879348  0.57445605     0.01900
H977        H  0.22244442  0.35892567  0.56823138     0.02400
H978        H  0.22489990  0.34082317  0.58447047     0.05900
H979        H  0.19449669  0.41739552  0.54747044     0.04900
H980        H  0.20634105  0.43365104  0.56391919    -0.00900
H981        H  0.19570995  0.39143521  0.56130846     0.00600
H982        H  0.34644137  0.94917243  0.55097115     0.04200
H983        H  0.34059538  0.97319856  0.53784495     0.06200
H984        H  0.33842118  0.93449794  0.53414674     0.07000
C985        C  0.41330158  0.20858268  0.38942408    -0.22600
C986        C  0.43538271  0.20049389  0.38591487     0.09400
C987        C  0.43764435  0.19211672  0.37250022     0.09800
C988        C  0.41666971  0.19063027  0.36298727    -0.17500
C989        C  0.39327947  0.19697044  0.36669140    -0.27900
C990        C  0.39235729  0.20721223  0.38004097     0.18100
C991        C  0.45265606  0.19693402  0.39719345     0.12100
C992        C  0.46203373  0.18464746  0.36831347    -0.12300
H993        H  0.41801727  0.18346950  0.35274876     0.12400
C994        C  0.36981089  0.21717156  0.38461654    -0.23100
H995        H  0.41181409  0.21493287  0.39981455     0.08000
C996        C  0.47326446  0.22435689  0.40418235     0.04400
C997        C  0.48107210  0.21921695  0.41737846    -0.20300
C998        C  0.46844019  0.18732873  0.42372818    -0.12600
C999        C  0.45002942  0.15974226  0.41617586     0.13100
C1000       C  0.44262472  0.16500824  0.40291130    -0.23100
C1001       C  0.48584853  0.25898823  0.39796691    -0.06100
H1002       H  0.49541676  0.24026557  0.42314129     0.14600
C1003       C  0.93910537  0.12261287  0.42683979    -0.16300
H1004       H  0.42658884  0.14413443  0.39747931     0.08900
H1005       H  0.37459318  0.22736403  0.39487566     0.06800
H1006       H  0.34651211  0.19550542  0.38541943     0.08000
H1007       H  0.37094369  0.23654941  0.37724941     0.07000
H1008       H  0.94223801  0.13599828  0.37962528     0.01900
H1009       H  0.97087943  0.17617110  0.37227343     0.02400
H1010       H  0.94320680  0.14648975  0.36165103     0.05900
H1011       H  0.50202882  0.27752265  0.40474080     0.04900
H1012       H  0.46722368  0.26431966  0.39622851    -0.00900
H1013       H  0.49807239  0.26186431  0.38802228     0.00600
H1014       H  0.42122156  0.12170142  0.43164116     0.04200
H1015       H  0.95763458  0.11704197  0.42843995     0.06200
H1016       H  0.92118940  0.10200248  0.42142287     0.07000
C1017       C  0.35282555  0.30788442  0.42373300    -0.22600
C1018       C  0.35426729  0.32688694  0.41193732     0.09400
C1019       C  0.35790599  0.35844967  0.41302119     0.09800
C1020       C  0.35814502  0.36956110  0.42606677    -0.17500
C1021       C  0.35447940  0.34950251  0.43788969    -0.27900
C1022       C  0.35323391  0.31900354  0.43676424     0.18100
C1023       C  0.34822223  0.31148474  0.39877358     0.12100
C1024       C  0.36040721  0.37974110  0.40045393    -0.12300
H1025       H  0.35949888  0.39314472  0.42705017     0.12400
C1026       C  0.35247695  0.29778419  0.44903893    -0.23100
H1027       H  0.35048626  0.28383079  0.42276344     0.08000
C1028       C  0.37146596  0.31246789  0.39039146     0.04400
C1029       C  0.36384801  0.29582167  0.37829275    -0.20300
C1030       C  0.33346933  0.27753603  0.37477781    -0.12600
C1031       C  0.31022392  0.27664701  0.38321226     0.13100
C1032       C  0.31799651  0.29394229  0.39507526    -0.23100
C1033       C  0.40399305  0.33031752  0.39441332    -0.06100
H1034       H  0.38146206  0.29606126  0.37181555     0.14600
C1035       C  0.27708180  0.25763142  0.38009739    -0.16300
H1036       H  0.30027336  0.29320341  0.40166478     0.08900
H1037       H  0.37182231  0.29326551  0.44802905     0.06800
H1038       H  0.33093541  0.27376054  0.44954147     0.08000
H1039       H  0.35448384  0.30937938  0.45885520     0.07000
H1040       H  0.33961299  0.36695105  0.39456753     0.01900
H1041       H  0.38043187  0.38480544  0.39385403     0.02400
H1042       H  0.36314205  0.40373123  0.40316323     0.05900
H1043       H  0.41929169  0.32846524  0.38672705     0.04900
H1044       H  0.40594525  0.31946004  0.40443355    -0.00900
H1045       H  0.41174699  0.35679755  0.39531374     0.00600
H1046       H  0.26424073  0.23866662  0.38858858     0.04200
H1047       H  0.27294574  0.24505807  0.37042509     0.06200
H1048       H  0.26798723  0.27471686  0.37919648     0.07000
C1049       C  0.17712787  0.11463324  0.39479722    -0.22600
C1050       C  0.17544422  0.13947038  0.40145234     0.09400
C1051       C  0.18783429  0.17124263  0.39473866     0.09800
C1052       C  0.20237288  0.17761678  0.38165299    -0.17500
C1053       C  0.20538884  0.15316546  0.37535975    -0.27900
C1054       C  0.19219678  0.12119135  0.38188620     0.18100
C1055       C  0.16361969  0.13226172  0.41596439     0.12100
C1056       C  0.18619626  0.19850165  0.40146045    -0.12300
H1057       H  0.21274106  0.20216349  0.37662133     0.12400
C1058       C  0.19470177  0.09420413  0.37535745    -0.23100
H1059       H  0.16784595  0.09039495  0.40003046     0.08000
C1060       C  0.13266276  0.11039747  0.41971127     0.04400
C1061       C  0.12366831  0.10083860  0.43365319    -0.20300
C1062       C  0.14495021  0.11274808  0.44390195    -0.12600
C1063       C  0.17537163  0.13689306  0.44015730     0.13100
C1064       C  0.18447740  0.14559408  0.42624552    -0.23100
C1065       C  0.10927102  0.09682489  0.40901290    -0.06100
H1066       H  0.10020445  0.08272921  0.43649174     0.14600
C1067       C  0.19857605  0.15457781  0.45055862    -0.16300
H1068       H  0.20818121  0.16273994  0.42338571     0.08900
H1069       H  0.18465785  0.09032252  0.36515000     0.06800
H1070       H  0.18256135  0.07049849  0.38169475     0.08000
H1071       H  0.21890721  0.10107037  0.37408665     0.07000
H1072       H  0.19875529  0.20414908  0.41103133     0.01900
H1073       H  0.16210384  0.19084605  0.40393700     0.02400
H1074       H  0.19637656  0.22152177  0.39466228     0.05900
H1075       H  0.08602448  0.08080583  0.41372433     0.04900
H1076       H  0.11430148  0.08190361  0.40213631    -0.00900
H1077       H  0.10950427  0.11746424  0.40284395     0.00600
H1078       H  0.21629611  0.14743048  0.45014069     0.04200
H1079       H  0.18825393  0.14948664  0.46110129     0.06200
H1080       H  0.20947084  0.18161226  0.44822001     0.07000
C1081       C  0.32721966  0.45507260  0.04975750    -0.22600
C1082       C  0.31984632  0.42286942  0.05385986     0.09400
C1083       C  0.32431765  0.40352343  0.04456030     0.09800
C1084       C  0.33981477  0.41835558  0.03189160    -0.17500
C1085       C  0.35070296  0.45194237  0.02854583    -0.27900
C1086       C  0.34233629  0.46977656  0.03708868     0.18100
C1087       C  0.31213217  0.41211748  0.06851075     0.12100
C1088       C  0.31420210  0.36792707  0.04835448    -0.12300
H1089       H  0.34582630  0.40457659  0.02519709     0.12400
C1090       C  0.35000518  0.50467687  0.03331038    -0.23100
H1091       H  0.32285873  0.46947556  0.05682096     0.08000
C1092       C  0.33523603  0.41823608  0.07765443     0.04400
C1093       C  0.32757126  0.40971521  0.09165851    -0.20300
C1094       C  0.29736373  0.39535077  0.09677633    -0.12600
C1095       C  0.27413749  0.38890439  0.08749135     0.13100
C1096       C  0.28194590  0.39751827  0.07344412    -0.23100
C1097       C  0.36805467  0.43405774  0.07263560    -0.06100
H1098       H  0.34539835  0.41467582  0.09867882     0.14600
C1099       C  0.24106883  0.37223964  0.09212353    -0.16300
H1100       H  0.26450935  0.39305892  0.06626137     0.08900
H1101       H  0.36552155  0.52131002  0.04081295     0.06800
H1102       H  0.32884529  0.50601809  0.03355078     0.08000
H1103       H  0.36083310  0.51358577  0.02285384     0.07000
H1104       H  0.28927923  0.35401489  0.05065179     0.01900
H1105       H  0.32583133  0.36591542  0.05754015     0.02400
H1106       H  0.31940715  0.35633854  0.03989172     0.05900
H1107       H  0.38319917  0.43719432  0.08117389     0.04900
H1108       H  0.37559750  0.45876954  0.06753097    -0.00900
H1109       H  0.37074435  0.41847519  0.06521326     0.00600
H1110       H  0.23706838  0.38840525  0.09869249     0.04200
H1111       H  0.23421036  0.34835999  0.09787160     0.06200
H1112       H  0.22617874  0.36707848  0.08331839     0.07000
C1113       C  0.37759475  0.29752100  0.15894484    -0.22600
C1114       C  0.38710920  0.32927438  0.15317273     0.09400
C1115       C  0.41846998  0.35295474  0.15237439     0.09800
C1116       C  0.43936295  0.34485737  0.15808645    -0.17500
C1117       C  0.42961074  0.31357086  0.16459059    -0.27900
C1118       C  0.39833324  0.28926904  0.16457165     0.18100
C1119       C  0.36372763  0.33725912  0.14832552     0.12100
C1120       C  0.42988710  0.38675516  0.14549040    -0.12300
H1121       H  0.46321870  0.36344864  0.15796357     0.12400
C1122       C  0.38654173  0.25431980  0.17029089    -0.23100
H1123       H  0.35360902  0.27925261  0.15933597     0.08000
C1124       C  0.34807216  0.32477529  0.13632120     0.04400
C1125       C  0.32690379  0.33378104  0.13200379    -0.20300
C1126       C  0.32115006  0.35547880  0.13920832    -0.12600
C1127       C  0.33656128  0.36761656  0.15138003     0.13100
C1128       C  0.35716920  0.35780945  0.15588061    -0.23100
C1129       C  0.35450653  0.30297893  0.12774951    -0.06100
H1130       H  0.31535856  0.32454804  0.12263331     0.14600
C1131       C  0.33354601  0.39238210  0.15947498    -0.16300
H1132       H  0.36906335  0.36721923  0.16515648     0.08900
H1133       H  0.39984728  0.24418436  0.16557452     0.06800
H1134       H  0.36232021  0.23802972  0.16808842     0.08000
H1135       H  0.38803183  0.25339726  0.18158830     0.07000
H1136       H  0.41992537  0.39968775  0.15082684     0.01900
H1137       H  0.42351381  0.38459076  0.13462356     0.02400
H1138       H  0.45495810  0.40205257  0.14569123     0.05900
H1139       H  0.34102905  0.29634803  0.11842968     0.04900
H1140       H  0.34866676  0.27976895  0.13379213    -0.00900
H1141       H  0.37894873  0.31598924  0.12441940     0.00600
H1142       H  0.32440483  0.38152687  0.17002318     0.04200
H1143       H  0.31860474  0.40067000  0.15491730     0.06200
H1144       H  0.35627641  0.41463310  0.16010068     0.07000
C1145       C  0.44888226  0.24069096  0.22852128    -0.22600
C1146       C  0.42550973  0.24398013  0.23455310     0.09400
C1147       C  0.41390504  0.26160964  0.22728632     0.09800
C1148       C  0.42606046  0.27574572  0.21410941    -0.17500
C1149       C  0.44976104  0.27293788  0.20792973    -0.27900
C1150       C  0.96483150  0.24786319  0.21651048     0.18100
C1151       C  0.41367654  0.22965827  0.24864955     0.12100
C1152       C  0.38878087  0.26573113  0.23349401    -0.12300
H1153       H  0.41708532  0.28944659  0.20866961     0.12400
C1154       C  0.98500558  0.23847181  0.20884067    -0.23100
H1155       H  0.96187545  0.21833895  0.23481004     0.08000
C1156       C  0.38742342  0.19843078  0.25108489     0.04400
C1157       C  0.37329389  0.18890472  0.26427566    -0.20300
C1158       C  0.38487164  0.20998425  0.27502868    -0.12600
C1159       C  0.41247595  0.24031958  0.27275586     0.13100
C1160       C  0.42664642  0.24957337  0.25957987    -0.23100
C1161       C  0.37367568  0.17588325  0.23963881    -0.06100
H1162       H  0.35213409  0.16571071  0.26602835     0.14600
C1163       C  0.42651542  0.26481226  0.28354714    -0.16300
H1164       H  0.44688495  0.27354456  0.25760524     0.08900
H1165       H  0.97445285  0.22721773  0.19923436     0.06800
H1166       H  0.98859465  0.22027352  0.21499034     0.08000
H1167       H  0.00767928  0.26053660  0.20641869     0.07000
H1168       H  0.39625496  0.27881627  0.24305562     0.01900
H1169       H  0.36827794  0.24123280  0.23592645     0.02400
H1170       H  0.38235166  0.28022088  0.22640673     0.05900
H1171       H  0.35354245  0.15210447  0.24338452     0.04900
H1172       H  0.39067830  0.17050558  0.23504719    -0.00900
H1173       H  0.36648595  0.18773124  0.23159465     0.00600
H1174       H  0.44972851  0.26928375  0.28530176     0.04200
H1175       H  0.41345259  0.25670197  0.29348297     0.06200
H1176       H  0.42811915  0.28846459  0.27995883     0.07000
C1177       C  0.23636910  0.03976556  0.26522481    -0.22600
C1178       C  0.25237013  0.05606939  0.25289043     0.09400
C1179       C  0.26974383  0.09071181  0.25164597     0.09800
C1180       C  0.27210298  0.10835300  0.26310045    -0.17500
C1181       C  0.25751347  0.09217733  0.27582775    -0.27900
C1182       C  0.23856888  0.05729992  0.27675737     0.18100
C1183       C  0.25261466  0.03646225  0.24166432     0.12100
C1184       C  0.28652584  0.10898732  0.23833818    -0.12300
H1185       H  0.28644177  0.13494523  0.26217434     0.12400
C1186       C  0.22039991  0.03814487  0.28968871    -0.23100
H1187       H  0.22279664  0.01308330  0.26590841     0.08000
C1188       C  0.27309709  0.02456040  0.24137163     0.04400
C1189       C  0.27514601  0.00928273  0.22981205    -0.20300
C1190       C  0.25762983  0.00630087  0.21848568    -0.12600
C1191       C  0.23674965  0.01788748  0.21887563     0.13100
C1192       C  0.23415711  0.03230758  0.23063568    -0.23100
C1193       C  0.29370648  0.02932537  0.25298653    -0.06100
H1194       H  0.29135412  0.00074391  0.22937347     0.14600
C1195       C  0.19761809  0.50007367  0.20953621    -0.16300
H1196       H  0.21880408  0.04199773  0.23092011     0.08900
H1197       H  0.20513792  0.01166053  0.28803755     0.06800
H1198       H  0.20600069  0.04820060  0.29318984     0.08000
H1199       H  0.23577048  0.03934905  0.29782674     0.07000
H1200       H  0.27015726  0.10349950  0.23014156     0.01900
H1201       H  0.30304907  0.10126724  0.23535209     0.02400
H1202       H  0.29915783  0.13609383  0.23916555     0.05900
H1203       H  0.30862122  0.01887114  0.25100814     0.04900
H1204       H  0.27992016  0.01690688  0.26262127    -0.00900
H1205       H  0.30841968  0.05604709  0.25435223     0.00600
H1206       H  0.19230660  0.47451456  0.20802311     0.04200
H1207       H  0.19874706  0.51291653  0.19950162     0.06200
H1208       H  0.17854625  0.49840107  0.21589803     0.07000
C1209       C  0.37305946  0.03893717  0.16555851    -0.22600
C1210       C  0.38495824  0.07275849  0.16674299     0.09400
C1211       C  0.37000795  0.08377643  0.17543349     0.09800
C1212       C  0.34329248  0.06052520  0.18275917    -0.17500
C1213       C  0.33056237  0.02655438  0.18125715    -0.27900
C1214       C  0.34587083  0.01557210  0.17265615     0.18100
C1215       C  0.41139396  0.09633027  0.15778641     0.12100
C1216       C  0.38132855  0.12002246  0.17647149    -0.12300
H1217       H  0.33151375  0.06910788  0.18921199     0.12400
C1218       C  0.33403067  0.97947578  0.17099885    -0.23100
H1219       H  0.38473590  0.03089726  0.15875648     0.08000
C1220       C  0.44088988  0.11325326  0.16264196     0.04400
C1221       C  0.46443299  0.13803593  0.15405967    -0.20300
C1222       C  0.45936229  0.14535426  0.14055545    -0.12600
C1223       C  0.43005733  0.12634076  0.13542046     0.13100
C1224       C  0.40637948  0.10243521  0.14421022    -0.23100
C1225       C  0.44757412  0.10471400  0.17673426    -0.06100
H1226       H  0.48699047  0.15170953  0.15791768     0.14600
C1227       C  0.92913473  0.15324744  0.11495975    -0.16300
H1228       H  0.38361541  0.08867894  0.14055988     0.08900
H1229       H  0.35011961  0.97552079  0.16467964     0.06800
H1230       H  0.31225869  0.96858680  0.16577310     0.08000
H1231       H  0.33063704  0.96630844  0.18120627     0.07000
H1232       H  0.38180487  0.13157758  0.16620970     0.01900
H1233       H  0.40453058  0.13253233  0.18035042     0.02400
H1234       H  0.36649189  0.12420647  0.18355963     0.05900
H1235       H  0.47201332  0.11997738  0.17880263     0.04900
H1236       H  0.44146849  0.07842547  0.17757976    -0.00900
H1237       H  0.43424990  0.10866735  0.18472528     0.00600
H1238       H  0.94091686  0.14663628  0.10719873     0.04200
H1239       H  0.93872912  0.18036846  0.11433360     0.06200
H1240       H  0.90486995  0.14153928  0.11243844     0.07000
C1241       C  0.50274119  0.17708717  0.07475238    -0.22600
C1242       C  0.04801337  0.17370034  0.07063603     0.09400
C1243       C  0.06934858  0.18653087  0.08087694     0.09800
C1244       C  0.06168416  0.19683157  0.09281798    -0.17500
C1245       C  0.03331436  0.19482401  0.09460608    -0.27900
C1246       C  0.49609102  0.18499921  0.08745918     0.18100
C1247       C  0.05147656  0.15626061  0.05914014     0.12100
C1248       C  0.09991262  0.18905082  0.07924601    -0.12300
H1249       H  0.07735478  0.20512382  0.10102933     0.12400
C1250       C  0.46474497  0.17982401  0.09011832    -0.23100
H1251       H  0.48482271  0.16538159  0.06763605     0.08000
C1252       C  0.53045680  0.13486356  0.06074596     0.04400
C1253       C  0.52736564  0.11780906  0.04904643    -0.20300
C1254       C  0.04282507  0.11954361  0.03594910    -0.12600
C1255       C  0.05562648  0.15416237  0.03426203     0.13100
C1256       C  0.05980176  0.17214487  0.04593292    -0.23100
C1257       C  0.52631302  0.11744248  0.07469678    -0.06100
H1258       H  0.52231022  0.09244994  0.05017709     0.14600
C1259       C  0.06283648  0.17187233  0.02023980    -0.16300
H1260       H  0.06773550  0.19831408  0.04471442     0.08900
H1261       H  0.44771066  0.15315984  0.09021604     0.06800
H1262       H  0.45972539  0.19315275  0.08180787     0.08000
H1263       H  0.46245190  0.18951367  0.09988106     0.07000
H1264       H  0.11233141  0.20509410  0.06991924     0.01900
H1265       H  0.09721417  0.16434894  0.07820515     0.02400
H1266       H  0.11392927  0.19983947  0.08818678     0.05900
H1267       H  0.52209385  0.09198661  0.07393053     0.04900
H1268       H  0.50659161  0.11581505  0.08047171    -0.00900
H1269       H  0.54697731  0.13108641  0.08055877     0.00600
H1270       H  0.04195801  0.16193249  0.01433432     0.04200
H1271       H  0.08021743  0.16856291  0.01468810     0.06200
H1272       H  0.07198678  0.19874847  0.02083765     0.07000
C1273       C  0.19288175  0.18939255  0.26027652    -0.22600
C1274       C  0.19983666  0.22212504  0.25778876     0.09400
C1275       C  0.21018220  0.24364997  0.26850379     0.09800
C1276       C  0.21622384  0.23280743  0.28111939    -0.17500
C1277       C  0.21238966  0.20109457  0.28306497    -0.27900
C1278       C  0.19925984  0.17866587  0.27275093     0.18100
C1279       C  0.20127555  0.23431070  0.24335321     0.12100
C1280       C  0.21653238  0.27851667  0.26629979    -0.12300
H1281       H  0.22652484  0.25004210  0.28899733     0.12400
C1282       C  0.19344130  0.14385438  0.27430894    -0.23100
H1283       H  0.18462959  0.17281626  0.25205206     0.08000
C1284       C  0.22717205  0.24338727  0.23473224     0.04400
C1285       C  0.22647287  0.25003372  0.22064696    -0.20300
C1286       C  0.20064081  0.24823118  0.21496900    -0.12600
C1287       C  0.17508763  0.24056404  0.22372529     0.13100
C1288       C  0.17585565  0.23383182  0.23785630    -0.23100
C1289       C  0.25536409  0.24536486  0.24038299    -0.06100
H1290       H  0.24595362  0.25586379  0.21394532     0.14600
C1291       C  0.14599382  0.23724707  0.21857062    -0.16300
H1292       H  0.15602368  0.22677845  0.24452946     0.08900
H1293       H  0.20754577  0.14047792  0.26648580     0.06800
H1294       H  0.16910671  0.12634040  0.27277473     0.08000
H1295       H  0.19866492  0.13749604  0.28459966     0.07000
H1296       H  0.19538608  0.27829595  0.26351885     0.01900
H1297       H  0.23413397  0.29181543  0.25788426     0.02400
H1298       H  0.22477146  0.29223103  0.27567722     0.05900
H1299       H  0.27363055  0.25312108  0.23226808     0.04900
H1300       H  0.25007001  0.22091420  0.24503717    -0.00900
H1301       H  0.26414562  0.26361649  0.24832241     0.00600
H1302       H  0.12678616  0.21225472  0.22172130     0.04200
H1303       H  0.14607865  0.24054643  0.20729264     0.06200
H1304       H  0.14173045  0.25581648  0.22313562     0.07000
C1305       C  0.18479716  0.09526354  0.14914200    -0.22600
C1306       C  0.17130289  0.11478013  0.14966124     0.09400
C1307       C  0.14266036  0.10404328  0.14416537     0.09800
C1308       C  0.12722691  0.07287945  0.13899148    -0.17500
C1309       C  0.13971274  0.05216672  0.13922147    -0.27900
C1310       C  0.16941566  0.06397046  0.14399628     0.18100
C1311       C  0.18554780  0.14456389  0.15740336     0.12100
C1312       C  0.12784063  0.12493042  0.14424511    -0.12300
H1313       H  0.10470017  0.06416096  0.13530630     0.12400
C1314       C  0.18532756  0.04417569  0.14374111    -0.23100
H1315       H  0.20697323  0.10409506  0.15329147     0.08000
C1316       C  0.18187768  0.14201797  0.17181375     0.04400
C1317       C  0.18919275  0.17030833  0.17865479    -0.20300
C1318       C  0.19955640  0.20091985  0.17137430    -0.12600
C1319       C  0.20605587  0.20384429  0.15701245     0.13100
C1320       C  0.19902687  0.17546770  0.15022974    -0.23100
C1321       C  0.16859552  0.10917402  0.17989322    -0.06100
H1322       H  0.18477218  0.16792674  0.18965720     0.14600
C1323       C  0.22001645  0.23641312  0.14866983    -0.16300
H1324       H  0.20228640  0.17702421  0.13916829     0.08900
H1325       H  0.17398430  0.02250599  0.15125183     0.06800
H1326       H  0.20933373  0.05884017  0.14658188     0.08000
H1327       H  0.18537424  0.03605937  0.13327182     0.07000
H1328       H  0.14218948  0.14848051  0.13805191     0.01900
H1329       H  0.12493607  0.13025224  0.15492664     0.02400
H1330       H  0.10512003  0.11242291  0.13981376     0.05900
H1331       H  0.16671258  0.11156176  0.19106363     0.04900
H1332       H  0.18334311  0.09835950  0.17831795    -0.00900
H1333       H  0.14551740  0.09209292  0.17647438     0.00600
H1334       H  0.22643361  0.23423462  0.13801643     0.04200
H1335       H  0.24092317  0.25483731  0.15341812     0.06200
H1336       H  0.20361924  0.24534938  0.14792169     0.07000
C1337       C  0.03117663  0.98863372  0.09536838    -0.22600
C1338       C  0.02827846  0.96492906  0.08646377     0.09400
C1339       C  0.03088466  0.44496082  0.08168334     0.09800
C1340       C  0.04270486  0.44142840  0.09409397    -0.17500
C1341       C  0.02735521  0.43796336  0.10664619    -0.27900
C1342       C  0.04681067  0.99311660  0.10746707     0.18100
C1343       C  0.01787986  0.96631893  0.07256870     0.12100
C1344       C  0.04986784  0.45303069  0.06851798    -0.12300
H1345       H  0.06517762  0.44424146  0.09407267     0.12400
C1346       C  0.04892076  0.01899516  0.11662319    -0.23100
H1347       H  0.02250375  0.00485678  0.09246533     0.08000
C1348       C  0.97785466  0.43336302  0.05904597     0.04400
C1349       C  0.97962113  0.96065659  0.05675483    -0.20300
C1350       C  0.00173590  0.97462198  0.04589373    -0.12600
C1351       C  0.03227826  0.98434332  0.04841711     0.13100
C1352       C  0.03991160  0.98011045  0.06174430    -0.23100
C1353       C  0.43977794  0.39363865  0.07060437    -0.06100
H1354       H  0.43664485  0.42366297  0.04660149     0.14600
C1355       C  0.05722492  0.00074082  0.03731229    -0.16300
H1356       H  0.06339307  0.98826135  0.06383891     0.08900
H1357       H  0.04155309  0.00819750  0.12731756     0.06800
H1358       H  0.03414249  0.02893283  0.11330938     0.08000
H1359       H  0.07249253  0.04008037  0.11622931     0.07000
H1360       H  0.05485480  0.47737484  0.06385137     0.01900
H1361       H  0.03762973  0.43399370  0.06116187     0.02400
H1362       H  0.07184732  0.45415905  0.07027888     0.05900
H1363       H  0.41929615  0.38166789  0.06445563     0.04900
H1364       H  0.95077180  0.38561415  0.06958226    -0.00900
H1365       H  0.44927937  0.37695729  0.07168558     0.00600
H1366       H  0.07990305  0.00832363  0.04134696     0.06600
H1367       H  0.05782711  0.02316599  0.03269937     0.06200
H1368       H  0.05330129  0.98334128  0.02929429     0.07000
C1369       C  0.08128800  0.98011602  0.12187874     0.80100
N1370       N  0.05335244  0.47327554  0.12497110    -0.78200
C1371       C  0.07186826  0.48197496  0.13563599     0.82600
N1372       N  0.12399160  0.99351709  0.14059355    -0.78100
C1373       C  0.10663033  0.96232427  0.13694303     0.82700
N1374       N  0.08534077  0.95558857  0.12752497    -0.79900
C1375       C  0.18690809  0.73240383  0.19687473     0.80100
N1376       N  0.18653279  0.75776561  0.18974916    -0.78200
C1377       C  0.17311015  0.75306263  0.17754727     0.82600
N1378       N  0.16008956  0.72300971  0.17246188    -0.78100
C1379       C  0.16068323  0.69766908  0.17935192     0.82700
N1380       N  0.17408147  0.70240514  0.19154357    -0.79900
C1381       C  0.01587511  0.72793037  0.10549516     0.80100
N1382       N  0.03784434  0.75058443  0.11300195    -0.78200
C1383       C  0.03181090  0.75278849  0.12633822     0.82600
N1384       N  0.00406050  0.73172087  0.13236965    -0.78100
C1385       C  0.48122205  0.69808853  0.12420731     0.82700
N1386       N  0.48858622  0.69396435  0.11134318    -0.79900
C1387       C  0.25795109  0.51696741  0.19564522     0.80100
N1388       N  0.24278369  0.97018000  0.19934522    -0.78200
C1389       C  0.24968517  0.96183062  0.18728627     0.82600
N1390       N  0.26506740  0.50061783  0.17008733    -0.78100
C1391       C  0.28684258  0.52930947  0.17481173     0.82700
N1392       N  0.28306801  0.53728446  0.18754270    -0.79900
C1393       C  0.96895887  0.78879799  0.19451999     0.80100
N1394       N  0.99777388  0.80081396  0.18953989    -0.78200
C1395       C  0.00726978  0.81742292  0.17702082     0.82600
N1396       N  0.98759787  0.82242996  0.16937485    -0.78100
C1397       C  0.95847239  0.81046520  0.17433283     0.82700
N1398       N  0.44617834  0.78346504  0.18841789    -0.79900
C1399       C  0.29722549  0.88113914  0.11459433     0.80100
N1400       N  0.27334752  0.88141011  0.12067142    -0.78200
C1401       C  0.26621880  0.87301230  0.13426964     0.82600
N1402       N  0.28342357  0.86411525  0.14197599    -0.78100
C1403       C  0.30787556  0.86427534  0.13590506     0.82700
N1404       N  0.31436619  0.87262129  0.12228292    -0.79900
Zr1405     Zr  0.19023454  0.86089000  0.16730310     2.17500
O1406       O  0.21620472  0.86276859  0.18827366    -0.51400
O1407       O  0.23203315  0.86595604  0.15283761    -0.74600
O1408       O  0.18588581  0.80837381  0.17410625    -0.81400
O1409       O  0.20386151  0.94351405  0.17661620    -0.83200
O1410       O  0.14692799  0.76941167  0.16267989    -0.78800
O1411       O  0.22713677  0.91300943  0.17581709    -0.90400
O1412       O  0.22245601  0.87633234  0.13110516    -0.76400
O1413       O  0.17126635  0.83441420  0.14666597    -0.85900
O1414       O  0.19477758  0.90255549  0.15087087    -0.85600
O1415       O  0.13824711  0.81956179  0.17322692    -0.72300
O1416       O  0.16043334  0.88216765  0.17706453    -0.84500
Zr1417     Zr  0.09274958  0.85539108  0.14533844     2.26400
Zr1418     Zr  0.11945951  0.79390484  0.15221873     2.06300
Zr1419     Zr  0.16427283  0.92292323  0.16025107     2.10000
Zr1420     Zr  0.17468376  0.87570943  0.13048968     1.78800
O1421       O  0.15979310  0.96057896  0.17506852    -0.93300
O1422       O  0.16934120  0.83692553  0.11361061    -0.41100
O1423       O  0.14454028  0.89710718  0.13950432    -0.77700
O1424       O  0.12261335  0.83440951  0.13528834    -0.96400
O1425       O  0.08873539  0.81405622  0.16168853    -0.89700
O1426       O  0.11220279  0.88252987  0.16584514    -0.92500
C1427       C  0.23864970  0.87179934  0.13990056     1.01200
C1428       C  0.22537895  0.93784427  0.17944346     1.14100
C1429       C  0.16884808  0.77872877  0.17082325     1.04900
O1430       O  0.12959457  0.76789725  0.13349260    -0.94700
O1431       O  0.07322880  0.76705593  0.13992352    -0.90400
O1432       O  0.05887193  0.80492664  0.13477062    -0.83600
C1433       C  0.05592804  0.77629278  0.13432940     1.11600
O1434       O  0.12406032  0.83266585  0.20462535    -0.96700
Zr1435     Zr  0.10839294  0.84116166  0.18207607     1.88900
O1436       O  0.04689995  0.83933705  0.15953791    -0.73300
O1437       O  0.08530847  0.74138891  0.16474096    -0.52600
O1438       O  0.07637108  0.78618950  0.19315959    -0.97300
O1439       O  0.10812530  0.88019282  0.19752406    -0.54500
O1440       O  0.05630300  0.82823887  0.18118315    -0.73800
C1441       C  0.03882771  0.82941734  0.17218702     0.98500
O1442       O  0.06874810  0.86450908  0.12549548    -0.62700
O1443       O  0.20488709  0.96975425  0.14659409    -0.57500
O1444       O  0.09511674  0.90720866  0.13960219    -0.94100
O1445       O  0.13638184  0.94670061  0.14965277    -0.92600
O1446       O  0.21209678  0.92904199  0.11947196    -0.92900
O1447       O  0.16165108  0.89169478  0.10868602    -0.91700
C1448       C  0.11287279  0.93700297  0.14248157     1.17300
H1449       H  0.21572236  0.91977373  0.14935941     0.33300
H1450       H  0.11433428  0.82453379  0.12682537     0.44100
H1451       H  0.10095046  0.89268004  0.16899165     0.37700
H1452       H  0.13678692  0.80362810  0.18027531     0.34100
H1453       H  0.18483125  0.85050354  0.10622703     0.25900
H1454       H  0.06612746  0.74154370  0.16631203     0.31900
H1455       H  0.06184253  0.77351449  0.18621004     0.37800
H1456       H  0.22994755  0.93742873  0.12522926     0.32200
H1457       H  0.19522862  0.98160053  0.14237940     0.31100
H1458       H  0.17648596  0.98273774  0.17175946     0.32800
H1459       H  0.09121060  0.88349930  0.19470626     0.31800
H1460       H  0.13992028  0.87529893  0.10785164     0.35800
H1461       H  0.07368818  0.85483043  0.11778755     0.28500
H1462       H  0.22983199  0.85406093  0.18612881     0.32700
H1463       H  0.10774019  0.82969928  0.21121033     0.35600
H1464       H  0.21830366  0.98463586  0.15338604     0.28200
H1465       H  0.04657869  0.85025277  0.12742998     0.41100
H1466       H  0.12133010  0.77343221  0.12533551     0.31100
H1467       H  0.17713043  0.82337831  0.11803338     0.38700
H1468       H  0.12671336  0.90136871  0.19473892     0.30600
H1469       H  0.08051157  0.72464801  0.15797867     0.30700
H1470       H  0.20032609  0.84595921  0.19483361     0.30900
Zr1471     Zr  0.30315197  0.67675078  0.35011732     2.17500
O1472       O  0.28211684  0.63297382  0.36845506    -0.51400
O1473       O  0.32373097  0.72289301  0.36427509    -0.74600
O1474       O  0.34342429  0.67309599  0.36137812    -0.81400
O1475       O  0.22922438  0.67795189  0.34606749    -0.83200
O1476       O  0.37952360  0.68131991  0.34526232    -0.78800
O1477       O  0.25661565  0.66689907  0.36145711    -0.90400
O1478       O  0.35186218  0.76961141  0.35044229    -0.76400
O1479       O  0.35023450  0.71376095  0.33827540    -0.85900
O1480       O  0.29673136  0.71889586  0.33890203    -0.85600
O1481       O  0.31285128  0.64356789  0.33538239    -0.72300
O1482       O  0.26180808  0.64902487  0.33552381    -0.84500
Zr1483     Zr  0.31243236  0.69426324  0.29660961     2.26400
Zr1484     Zr  0.35956253  0.68160402  0.32294663     2.06300
Zr1485     Zr  0.25666004  0.69179303  0.32372421     2.10000
Zr1486     Zr  0.34371887  0.75520333  0.32677807     1.78800
O1487       O  0.20228052  0.65773109  0.32103713    -0.93300
O1488       O  0.39861968  0.78779020  0.32837085    -0.41100
O1489       O  0.30376758  0.72826430  0.31136246    -0.77700
O1490       O  0.35398730  0.72401086  0.31101307    -0.96400
O1491       O  0.31890160  0.65273572  0.30814461    -0.89700
O1492       O  0.26516544  0.65832090  0.30861462    -0.92500
C1493       C  0.34140826  0.75405546  0.36220125     1.01200
C1494       C  0.23345334  0.66914688  0.35812341     1.14100
C1495       C  0.36953821  0.67738883  0.35776589     1.04900
O1496       O  0.41408886  0.71984193  0.32172186    -0.94700
O1497       O  0.38451502  0.68793945  0.30067761    -0.90400
O1498       O  0.35649171  0.69748079  0.28520158    -0.83600
C1499       C  0.37919587  0.69431139  0.28846518     1.11600
O1500       O  0.24847280  0.57502481  0.33937469    -0.96700
Zr1501     Zr  0.27187498  0.61696380  0.32040203     1.88900
O1502       O  0.28802473  0.64654306  0.28306737    -0.73300
O1503       O  0.36586315  0.63349998  0.32403223    -0.52600
O1504       O  0.28913933  0.57719290  0.31955817    -0.97300
O1505       O  0.21712450  0.58363225  0.31824476    -0.54500
O1506       O  0.26493995  0.60010367  0.29726642    -0.73800
C1507       C  0.27283125  0.61508315  0.28533861     0.98500
O1508       O  0.33110846  0.73348799  0.27655031    -0.62700
O1509       O  0.25429377  0.74158549  0.32698926    -0.57500
O1510       O  0.27864889  0.70916763  0.28567485    -0.94100
O1511       O  0.24385989  0.70623827  0.30148035    -0.92600
O1512       O  0.32491994  0.79361128  0.32810764    -0.92900
O1513       O  0.36750892  0.80139470  0.30958285    -0.91700
C1514       C  0.25547680  0.71144749  0.28919625     1.17300
H1515       H  0.29138600  0.73027670  0.34537160     0.33300
H1516       H  0.37224052  0.73879513  0.30552011     0.44100
H1517       H  0.24897556  0.64878235  0.30233425     0.37700
H1518       H  0.31525076  0.62726818  0.34075992     0.34100
H1519       H  0.40243828  0.80930244  0.33137495     0.25900
H1520       H  0.36229054  0.62581453  0.31464072     0.31900
H1521       H  0.30656975  0.58736859  0.31277232     0.37800
H1522       H  0.31777963  0.79143645  0.33779231     0.32200
H1523       H  0.23474990  0.73711626  0.32324436     0.31100
H1524       H  0.19621006  0.63697940  0.32659616     0.32800
H1525       H  0.21285929  0.59208595  0.30958595     0.31800
H1526       H  0.35571378  0.79294094  0.30132557     0.35800
H1527       H  0.35291658  0.74871627  0.27787811     0.28500
H1528       H  0.29192556  0.64368427  0.37684728     0.32700
H1529       H  0.23758548  0.55371988  0.33507260     0.35600
H1530       H  0.25123034  0.74168173  0.33701222     0.28200
H1531       H  0.33072100  0.72067620  0.26873498     0.41100
H1532       H  0.41648597  0.73985145  0.32576324     0.31100
H1533       H  0.40304829  0.77754974  0.33643744     0.38700
H1534       H  0.20821237  0.59056285  0.32553269     0.30600
H1535       H  0.38792298  0.64260997  0.32500944     0.30700
H1536       H  0.29047129  0.61850736  0.36647392     0.30900
C1537       C  0.29241372  0.46775535  0.52113426     0.80100
N1538       N  0.31889318  0.47341798  0.51509194    -0.78200
C1539       C  0.33081734  0.49330807  0.50340148     0.82600
N1540       N  0.31577959  0.50783547  0.49760042    -0.78100
C1541       C  0.28874871  0.50172580  0.50349667     0.82700
N1542       N  0.27747262  0.48177924  0.51515100    -0.79900
C1543       C  0.13843875  0.60893268  0.45041907     0.80100
N1544       N  0.11096523  0.59937894  0.45654832    -0.78200
C1545       C  0.10186186  0.58053438  0.46857966     0.82600
N1546       N  0.12046892  0.57066377  0.47443103    -0.78100
C1547       C  0.14845972  0.58061202  0.46841109     0.82700
N1548       N  0.15683757  0.59926690  0.45634347    -0.79900
C1549       C  0.07844542  0.70511477  0.52552181     0.80100
N1550       N  0.10719441  0.72105555  0.51995708    -0.78200
C1551       C  0.11443752  0.71065231  0.50855500     0.82600
N1552       N  0.09236495  0.68434684  0.50247384    -0.78100
C1553       C  0.06342969  0.66829539  0.50797061     0.82700
N1554       N  0.05663303  0.67858023  0.51957456    -0.79900
C1555       C  0.36566074  0.84835966  0.45146847     0.80100
N1556       N  0.33872447  0.82730863  0.45822502    -0.78200
C1557       C  0.33010847  0.83583432  0.46982179     0.82600
N1558       N  0.34867474  0.86600710  0.47451670    -0.78100
C1559       C  0.37542700  0.88730023  0.46766585     0.82700
N1560       N  0.38361775  0.87853442  0.45605180    -0.79900
C1561       C  0.46627739  0.88680022  0.53983860     0.80100
N1562       N  0.46651730  0.86326887  0.53241282    -0.78200
C1563       C  0.46121466  0.86252864  0.51884907     0.82600
N1564       N  0.45645643  0.88593210  0.51270262    -0.78100
C1565       C  0.45584880  0.90921850  0.52007387     0.82700
N1566       N  0.46139828  0.91012680  0.53360813    -0.79900
C1567       C  0.97917158  0.69174751  0.43927567     0.80100
N1568       N  0.97452345  0.71163797  0.44735446    -0.78200
C1569       C  0.97219568  0.70647834  0.46118172     0.82600
N1570       N  0.97429180  0.68103676  0.46707544    -0.78100
C1571       C  0.97962479  0.66141066  0.45916874     0.82700
N1572       N  0.98180191  0.66659129  0.44528689    -0.79900
Zr1573     Zr  0.41720500  0.97269547  0.49866873     2.17500
O1574       O  0.38937105  0.93839377  0.51921737    -0.51400
O1575       O  0.39071800  0.92647602  0.48439629    -0.74600
O1576       O  0.36762940  0.96890443  0.50191853    -0.81400
O1577       O  0.48306281  0.96018285  0.50813322    -0.83200
O1578       O  0.37799928  0.52852374  0.49103704    -0.78800
O1579       O  0.43163703  0.93661988  0.51078981    -0.90400
O1580       O  0.41502735  0.94130263  0.46332298    -0.76400
O1581       O  0.41695553  0.50453270  0.47843089    -0.85900
O1582       O  0.45667342  0.97609176  0.48393965    -0.85600
O1583       O  0.43050520  0.53256997  0.50522286    -0.72300
O1584       O  0.46385554  0.50498235  0.51093458    -0.84500
Zr1585     Zr  0.01219106  0.58760218  0.47538521     2.26400
Zr1586     Zr  0.43187433  0.55958660  0.48356462     2.06300
Zr1587     Zr  0.50356987  0.01116573  0.49413378     2.10000
Zr1588     Zr  0.45266241  0.99890273  0.46235836     1.78800
O1589       O  0.02819843  0.01573414  0.51831032    -0.93300
O1590       O  0.42355365  0.50671934  0.44572942    -0.41100
O1591       O  0.50186828  0.53023625  0.47426042    -0.77700
O1592       O  0.46865039  0.55841428  0.46814206    -0.96400
O1593       O  0.47975361  0.58787348  0.49412296    -0.89700
O1594       O  0.01595275  0.56253675  0.49646841    -0.92500
C1595       C  0.39483988  0.92042308  0.47214029     1.01200
C1596       C  0.45676731  0.93728230  0.51270744     1.14100
C1597       C  0.36154493  0.50143981  0.49836541     1.04900
O1598       O  0.40426674  0.55833332  0.46328476    -0.94700
O1599       O  0.45943691  0.61456554  0.47256697    -0.90400
O1600       O  0.00063072  0.62835914  0.46551240    -0.83600
C1601       C  0.48624933  0.63310961  0.46715375     1.11600
O1602       O  0.45170490  0.53671911  0.53758830    -0.96700
Zr1603     Zr  0.47862858  0.56042393  0.51539863     1.88900
O1604       O  0.04300785  0.63183012  0.49012823    -0.73300
O1605       O  0.41856977  0.59527333  0.49550654    -0.52600
O1606       O  0.45653151  0.59208075  0.52391309    -0.97300
O1607       O  0.01161659  0.55984921  0.52941893    -0.54500
O1608       O  0.01938696  0.61718486  0.51136132    -0.73800
C1609       C  0.04042174  0.63735195  0.50268640     0.98500
O1610       O  0.04285303  0.61675110  0.45447261    -0.62700
O1611       O  0.52175622  0.97821703  0.48329543    -0.57500
O1612       O  0.05911927  0.58714452  0.47065468    -0.94100
O1613       O  0.05767749  0.54337071  0.48244612    -0.92600
O1614       O  0.47649142  0.96991548  0.45288429    -0.92900
O1615       O  0.48215111  0.52632780  0.44201453    -0.91700
C1616       C  0.07112264  0.56977832  0.47446776     1.17300
H1617       H  0.45434638  0.95456940  0.48305676     0.33300
H1618       H  0.47015510  0.56998940  0.45945353     0.44100
H1619       H  0.03603556  0.57457988  0.49993643     0.37700
H1620       H  0.41553913  0.53230542  0.51151368     0.34100
H1621       H  0.41612884  0.97890894  0.43906664     0.25900
H1622       H  0.40163668  0.59470731  0.49045944     0.31900
H1623       H  0.97155418  0.60686327  0.52755144     0.37800
H1624       H  0.49651048  0.97953153  0.45703832     0.32200
H1625       H  0.02244903  0.97651577  0.48083450     0.31100
H1626       H  0.03649384  0.00073010  0.51772658     0.32800
H1627       H  0.03247998  0.57638232  0.52598249     0.31800
H1628       H  0.50287141  0.54275157  0.44450918     0.35800
H1629       H  0.02819758  0.61339332  0.44732616     0.28500
H1630       H  0.36846661  0.92327284  0.51648204     0.32700
H1631       H  0.46053076  0.55489236  0.54383058     0.35600
H1632       H  0.50370402  0.95596573  0.48300261     0.28200
H1633       H  0.05289531  0.64051073  0.45607664     0.41100
H1634       H  0.41933932  0.56528538  0.45549024     0.31100
H1635       H  0.39940355  0.98967217  0.44937259     0.38700
H1636       H  0.01060589  0.53837367  0.52870655     0.30600
H1637       H  0.40915135  0.58327299  0.50447093     0.30700
H1638       H  0.38761649  0.95369160  0.52525857     0.30900
C1639       C  0.28855661  0.83706112  0.77084134     0.80100
N1640       N  0.30098171  0.86725128  0.77596533    -0.78200
C1641       C  0.30958181  0.87165649  0.78905630     0.82600
N1642       N  0.30556757  0.84536480  0.79710381    -0.78100
C1643       C  0.29296370  0.81491673  0.79229102     0.82700
N1644       N  0.28440410  0.81063163  0.77907149    -0.79900
C1645       C  0.36904787  0.58449098  0.85577696     0.80100
N1646       N  0.35320592  0.55414869  0.85083288    -0.78200
C1647       C  0.33213830  0.54784104  0.84137509     0.82600
N1648       N  0.32719160  0.57221750  0.83668766    -0.78100
C1649       C  0.34288281  0.60261177  0.84145073     0.82700
N1650       N  0.36364395  0.60868079  0.85106718    -0.79900
C1651       C  0.17206093  0.56459025  0.77918578     0.80100
N1652       N  0.19337454  0.59198873  0.78491463    -0.78200
C1653       C  0.19143362  0.59498300  0.79858437     0.82600
N1654       N  0.16886738  0.56975420  0.80661718    -0.78100
C1655       C  0.14766151  0.54212244  0.80093725     0.82700
N1656       N  0.14941783  0.53978756  0.78723692    -0.79900
C1657       C  0.43061024  0.84077831  0.87402824     0.80100
N1658       N  0.45914014  0.86032478  0.86835583    -0.78200
C1659       C  0.46660032  0.85617651  0.85550522     0.82600
N1660       N  0.44498019  0.83221671  0.84822535    -0.78100
C1661       C  0.41649117  0.81242195  0.85385596     0.82700
N1662       N  0.40931178  0.81696555  0.86666924    -0.79900
C1663       C  0.15181389  0.68811885  0.86495690     0.80100
N1664       N  0.13512488  0.69721740  0.85723110    -0.78200
C1665       C  0.14157244  0.70582324  0.84363696     0.82600
N1666       N  0.16525523  0.70453516  0.83744421    -0.78100
C1667       C  0.18219273  0.69508463  0.84512315     0.82700
N1668       N  0.17521303  0.68704553  0.85877939    -0.79900
C1669       C  0.47392437  0.75438303  0.78418618     0.80100
N1670       N  0.49307730  0.75036760  0.79236210    -0.78200
C1671       C  0.48490146  0.73778655  0.80549072     0.82600
N1672       N  0.45650979  0.72885642  0.81066710    -0.78100
C1673       C  0.43703011  0.73328574  0.80255695     0.82700
N1674       N  0.44595995  0.74597758  0.78938356    -0.79900
Zr1675     Zr  0.25800408  0.70492482  0.81184062     2.17500
O1676       O  0.22583652  0.70963639  0.79471139    -0.51400
O1677       O  0.21688684  0.70190161  0.82657961    -0.74600
O1678       O  0.22336837  0.65152710  0.80255685    -0.81400
O1679       O  0.31147666  0.79774533  0.81058078    -0.83200
O1680       O  0.23278747  0.61270587  0.81225624    -0.78800
O1681       O  0.27290005  0.75797516  0.79927412    -0.90400
O1682       O  0.22536704  0.69057860  0.84838182    -0.76400
O1683       O  0.25315990  0.66505434  0.82932936    -0.85900
O1684       O  0.27853164  0.73399248  0.83199138    -0.85600
O1685       O  0.28628445  0.68044834  0.80302331    -0.72300
O1686       O  0.31052278  0.74388778  0.80622580    -0.84500
Zr1687     Zr  0.35536238  0.70947229  0.83483959     2.26400
Zr1688     Zr  0.28252104  0.64198408  0.82112618     2.06300
Zr1689     Zr  0.33088996  0.77233825  0.82636597     2.10000
Zr1690     Zr  0.27429350  0.69391106  0.84917148     1.78800
O1691       O  0.37098621  0.82562125  0.81650602    -0.93300
O1692       O  0.24016098  0.63892885  0.85979706    -0.41100
O1693       O  0.32689868  0.73307843  0.84394649    -0.77700
O1694       O  0.30319195  0.66990758  0.84137687    -0.96400
O1695       O  0.33452015  0.68047091  0.81490141    -0.89700
O1696       O  0.36000026  0.74954316  0.81761889    -0.92500
C1697       C  0.20962877  0.69562900  0.83949744     1.01200
C1698       C  0.29194626  0.78831668  0.80126294     1.14100
C1699       C  0.21720883  0.62155172  0.80496438     1.04900
O1700       O  0.25063286  0.59263244  0.83600944    -0.94700
O1701       O  0.31146381  0.61805160  0.83018819    -0.90400
O1702       O  0.35357479  0.65753838  0.83977867    -0.83600
C1703       C  0.33572060  0.62779671  0.83679292     1.11600
O1704       O  0.32139572  0.72843298  0.77561714    -0.96700
Zr1705     Zr  0.33894699  0.72039468  0.79775475     1.88900
O1706       O  0.39980795  0.72033045  0.82061721    -0.73300
O1707       O  0.28672550  0.61125187  0.80267725    -0.52600
O1708       O  0.33846777  0.68221077  0.78166989    -0.97300
O1709       O  0.37260793  0.77504910  0.78667808    -0.54500
O1710       O  0.38887717  0.72601619  0.79855117    -0.73800
C1711       C  0.40658566  0.72566591  0.80766665     0.98500
O1712       O  0.37551321  0.70100356  0.85617087    -0.62700
O1713       O  0.31492493  0.79993883  0.84214958    -0.57500
O1714       O  0.39154815  0.76113645  0.84417034    -0.94100
O1715       O  0.37375141  0.79667524  0.84094374    -0.92600
O1716       O  0.27748027  0.73308954  0.86540258    -0.92900
O1717       O  0.28826277  0.68636368  0.87221032    -0.91700
C1718       C  0.39259725  0.78862134  0.84571130     1.17300
H1719       H  0.26842121  0.74564412  0.83477778     0.33300
H1720       H  0.30218795  0.65445432  0.84856539     0.44100
H1721       H  0.38099030  0.76645232  0.81589493     0.37700
H1722       H  0.27760364  0.66926927  0.79484070     0.34100
H1723       H  0.22768598  0.64216503  0.86674454     0.25900
H1724       H  0.27443023  0.58782126  0.80608912     0.31900
H1725       H  0.33264717  0.66171322  0.78735810     0.37800
H1726       H  0.26655779  0.74359933  0.86125930     0.32200
H1727       H  0.32368749  0.79859635  0.85095732     0.31100
H1728       H  0.38594986  0.82104264  0.81204139     0.32800
H1729       H  0.39189460  0.78375882  0.79142520     0.31800
H1730       H  0.30791316  0.68710179  0.87084020     0.35800
H1731       H  0.39786745  0.71289405  0.85454246     0.28500
H1732       H  0.20468445  0.69358851  0.79796236     0.32700
H1733       H  0.33787346  0.73301296  0.76879780     0.35600
H1734       H  0.32674004  0.82352850  0.83891153     0.28200
H1735       H  0.37158706  0.71352674  0.86296968     0.41100
H1736       H  0.24440926  0.57407032  0.83005067     0.31100
H1737       H  0.22585220  0.62702464  0.85265253     0.38700
H1738       H  0.36386475  0.78860174  0.78955710     0.30600
H1739       H  0.27510837  0.61379270  0.79516576     0.30700
H1740       H  0.22940224  0.70066140  0.78637630     0.30900
Zr1741     Zr  0.47762765  0.52842907  0.96272850     2.17500
O1742       O  0.00271101  0.51805569  0.94733670    -0.51400
O1743       O  0.46883115  0.56083943  0.94532008    -0.74600
O1744       O  0.45183838  0.98210973  0.95306872    -0.81400
O1745       O  0.05328282  0.61448566  0.96878199    -0.83200
O1746       O  0.41487150  0.94466863  0.96823668    -0.78800
O1747       O  0.02711703  0.57748089  0.95306869    -0.90400
O1748       O  0.44568041  0.58478076  0.95579530    -0.76400
O1749       O  0.43177047  0.52595426  0.96998340    -0.85900
O1750       O  0.49304626  0.57917386  0.97271513    -0.85600
O1751       O  0.45259497  0.48005510  0.97811245    -0.72300
O1752       O  0.01269850  0.54796320  0.98026750    -0.84500
Zr1753     Zr  0.45249664  0.53046999  0.01439675     2.26400
Zr1754     Zr  0.41989861  0.97254943  0.98923584     2.06300
Zr1755     Zr  0.02023662  0.59749950  0.98959137     2.10000
Zr1756     Zr  0.44728502  0.57633491  0.98035279     1.78800
O1757       O  0.06966156  0.60803481  0.99681974    -0.93300
O1758       O  0.38883872  0.04032832  0.97418980    -0.41100
O1759       O  0.47811226  0.57863386  0.99888161    -0.77700
O1760       O  0.42332753  0.02055469  0.99859255    -0.96400
O1761       O  0.45416311  0.98504079  0.00740386    -0.89700
O1762       O  0.00240762  0.55223328  0.00646270    -0.92500
C1763       C  0.45557854  0.57796905  0.94503188     1.01200
C1764       C  0.05073990  0.60313939  0.95687050     1.14100
C1765       C  0.42894334  0.95351081  0.95639567     1.04900
O1766       O  0.37064126  0.95980266  0.98093880    -0.94700
O1767       O  0.38601629  0.95201998  0.00967002    -0.90400
O1768       O  0.40953196  0.99033121  0.02525922    -0.83600
C1769       C  0.38728892  0.96351589  0.02143071     1.11600
O1770       O  0.02328088  0.48860685  0.98185884    -0.96700
Zr1771     Zr  0.99360096  0.50249657  0.99710598     1.88900
O1772       O  0.46345984  0.49983636  0.03188590    -0.73300
O1773       O  0.40460619  0.91560889  0.99614606    -0.52600
O1774       O  0.96772557  0.92284692  0.00395090    -0.97300
O1775       O  0.04356219  0.51830201  0.00557476    -0.54500
O1776       O  0.98634796  0.48522448  0.02126842    -0.73800
C1777       C  0.97778186  0.49368670  0.03196099     0.98500
O1778       O  0.43491797  0.55415687  0.03145206    -0.62700
O1779       O  0.54979773  0.64060339  0.98732765    -0.57500
O1780       O  0.48901852  0.57620624  0.02627096    -0.94100
O1781       O  0.02771920  0.62521325  0.01085536    -0.92600
O1782       O  0.47875740  0.63475840  0.97342194    -0.92900
O1783       O  0.43894311  0.61068529  0.99565303    -0.91700
C1784       C  0.51619320  0.60031283  0.02410694     1.17300
H1785       H  0.50428952  0.59763102  0.96608199     0.33300
H1786       H  0.40387920  0.01581118  0.00232287     0.44100
H1787       H  0.01604705  0.55781560  0.01388324     0.37700
H1788       H  0.46906695  0.96708028  0.97693684     0.34100
H1789       H  0.38755256  0.02505469  0.96726663     0.25900
H1790       H  0.38550409  0.90218093  0.99149894     0.31900
H1791       H  0.98273958  0.91694638  0.00731413     0.37800
H1792       H  0.49643243  0.64266640  0.97927140     0.32200
H1793       H  0.05871395  0.66727333  0.98553206     0.31100
H1794       H  0.08081427  0.63175528  0.99852855     0.32800
H1795       H  0.04219841  0.49719846  0.00871455     0.31800
H1796       H  0.43493023  0.59897335  0.00482952     0.35800
H1797       H  0.41722865  0.55436017  0.02752152     0.28500
H1798       H  0.99406201  0.51729408  0.93827455     0.32700
H1799       H  0.03987379  0.51005534  0.97781567     0.35600
H1800       H  0.54782230  0.64490060  0.97748929     0.28200
H1801       H  0.42647455  0.53772598  0.03941199     0.41100
H1802       H  0.35870453  0.93542408  0.98136281     0.31100
H1803       H  0.37606091  0.02573985  0.98214273     0.38700
H1804       H  0.04485214  0.52928839  0.01411797     0.30600
H1805       H  0.41975191  0.91161866  0.99148161     0.30700
H1806       H  0.99503538  0.49471438  0.95045117     0.30900
Zr1807     Zr  0.13402929  0.86940411  0.67909587     2.17500
O1808       O  0.11159540  0.82404017  0.69673797    -0.51400
O1809       O  0.15661979  0.91465744  0.69382435    -0.74600
O1810       O  0.17316960  0.86330517  0.68997160    -0.81400
O1811       O  0.06016441  0.87198870  0.67630548    -0.83200
O1812       O  0.20905831  0.87102335  0.67375398    -0.78800
O1813       O  0.09001549  0.86419455  0.69131402    -0.90400
O1814       O  0.17607837  0.96206000  0.68040894    -0.76400
O1815       O  0.18029376  0.90952736  0.66741241    -0.85900
O1816       O  0.12406251  0.90938349  0.66846681    -0.85600
O1817       O  0.14631936  0.83921878  0.66364694    -0.72300
O1818       O  0.09305960  0.83904062  0.66459946    -0.84500
Zr1819     Zr  0.14169752  0.89041418  0.62588866     2.26400
Zr1820     Zr  0.19225473  0.88024093  0.65151554     2.06300
Zr1821     Zr  0.08399960  0.87983255  0.65356448     2.10000
Zr1822     Zr  0.16992933  0.94895133  0.65654009     1.78800
O1823       O  0.03092297  0.83683675  0.65323410    -0.93300
O1824       O  0.22413008  0.98603228  0.65861406    -0.41100
O1825       O  0.12973006  0.92070629  0.64130860    -0.77700
O1826       O  0.18298151  0.92087082  0.64034844    -0.96400
O1827       O  0.15211005  0.85085840  0.63658064    -0.89700
O1828       O  0.09571142  0.85024436  0.63772149    -0.92500
C1829       C  0.17012987  0.94618384  0.69215723     1.01200
C1830       C  0.06656637  0.86639554  0.68843442     1.14100
C1831       C  0.19840244  0.86559617  0.68623960     1.04900
O1832       O  0.24497551  0.92367915  0.65258517    -0.94700
O1833       O  0.21569649  0.88854075  0.62854523    -0.90400
O1834       O  0.18593187  0.89698537  0.61364608    -0.83600
C1835       C  0.20926084  0.89467247  0.61648612     1.11600
O1836       O  0.09076407  0.76622844  0.66613689    -0.96700
Zr1837     Zr  0.10618051  0.81083692  0.64842306     1.88900
O1838       O  0.12194905  0.84473330  0.61127142    -0.73300
O1839       O  0.20576373  0.83777073  0.64902259    -0.52600
O1840       O  0.12733145  0.77583408  0.64340806    -0.97300
O1841       O  0.05130371  0.77418549  0.64911901    -0.54500
O1842       O  0.09721463  0.79684004  0.62466365    -0.73800
C1843       C  0.10628432  0.81322495  0.61297450     0.98500
O1844       O  0.16102068  0.93546830  0.60809260    -0.62700
O1845       O  0.07292734  0.92448359  0.65456274    -0.57500
O1846       O  0.10128253  0.89439373  0.61505164    -0.94100
O1847       O  0.06592545  0.88681210  0.63156290    -0.92600
O1848       O  0.14790119  0.98438919  0.65798034    -0.92900
O1849       O  0.19185522  0.99515333  0.63931357    -0.91700
C1850       C  0.07601569  0.89183277  0.61903998     1.17300
H1851       H  0.11810173  0.91990655  0.67511249     0.33300
H1852       H  0.20077238  0.93686516  0.63486927     0.44100
H1853       H  0.07945670  0.83952900  0.63154933     0.37700
H1854       H  0.14981801  0.82336237  0.66873925     0.34100
H1855       H  0.22584417  0.00682258  0.66143877     0.25900
H1856       H  0.22723857  0.84815646  0.65152703     0.31900
H1857       H  0.14343714  0.78853674  0.63613877     0.37800
H1858       H  0.14321261  0.98412300  0.66787171     0.32200
H1859       H  0.05148863  0.91367111  0.65804406     0.31100
H1860       H  0.02004620  0.84856921  0.65044437     0.32800
H1861       H  0.04474024  0.77921488  0.64029736     0.31800
H1862       H  0.18721917  0.98484437  0.63043056     0.35800
H1863       H  0.15169079  0.94877961  0.61048839     0.28500
H1864       H  0.12250187  0.83331556  0.70512996     0.32700
H1865       H  0.07992119  0.74561761  0.66134776     0.35600
H1866       H  0.08474453  0.93740231  0.66217608     0.28200
H1867       H  0.18273147  0.94977376  0.60989253     0.41100
H1868       H  0.24446688  0.94444751  0.65150561     0.31100
H1869       H  0.22936793  0.97700833  0.66681995     0.38700
H1870       H  0.04326367  0.78281988  0.65608547     0.30600
H1871       H  0.19427558  0.82094234  0.65660896     0.30700
H1872       H  0.11826437  0.80854315  0.69400778     0.30900
C1873       C  0.51586263  0.78121710  0.74913987    -0.22600
C1874       C  0.50438263  0.80038361  0.74343312     0.09400
C1875       C  0.48146485  0.80275532  0.75062157     0.09800
C1876       C  0.47142438  0.78689481  0.76379947    -0.17500
C1877       C  0.48389844  0.76875891  0.76988530    -0.27900
C1878       C  0.50595703  0.76523955  0.76222562     0.18100
C1879       C  0.51769670  0.81802220  0.72997120     0.12100
C1880       C  0.46789517  0.82214480  0.74440226    -0.12300
H1881       H  0.45427847  0.78935035  0.76947631     0.12400
C1882       C  0.51888225  0.74422640  0.76745306    -0.23100
H1883       H  0.01990707  0.79587085  0.73579827     0.08000
C1884       C  0.04597434  0.87233750  0.72458311     0.04400
C1885       C  0.06093664  0.88067605  0.71162861    -0.20300
C1886       C  0.04657771  0.86297492  0.70026036    -0.12600
C1887       C  0.01522716  0.83902849  0.70153273     0.13100
C1888       C  0.50591066  0.80127496  0.71813961    -0.23100
C1889       C  0.06337821  0.88949407  0.73678412    -0.06100
H1890       H  0.08479745  0.89941443  0.71057994     0.14600
C1891       C  0.50931327  0.79149393  0.69358400    -0.16300
H1892       H  0.48509139  0.77756862  0.71903410     0.08900
H1893       H  0.53351200  0.75549256  0.77614732     0.06800
H1894       H  0.53328194  0.74187406  0.75943951     0.08000
H1895       H  0.50016553  0.71900246  0.77068516     0.07000
H1896       H  0.45744295  0.81170837  0.73466384     0.01900
H1897       H  0.48585600  0.84829028  0.74224339     0.02400
H1898       H  0.45005620  0.82139542  0.75136032     0.05900
H1899       H  0.08704648  0.90893361  0.73373295     0.04900
H1900       H  0.06437435  0.87144635  0.74422352    -0.00900
H1901       H  0.05215038  0.90140403  0.74189498     0.00600
H1902       H  0.50605693  0.76671571  0.69646242     0.04200
H1903       H  0.01090081  0.82517468  0.68018773     0.06200
H1904       H  0.48697029  0.78880929  0.69121516     0.07000
C1905       C  0.06741995  0.76781731  0.81031484    -0.22600
C1906       C  0.05717875  0.73612474  0.81634258     0.09400
C1907       C  0.51849336  0.69208212  0.82435374     0.09800
C1908       C  0.49729314  0.70044266  0.81932468    -0.17500
C1909       C  0.50674565  0.73207621  0.81331707    -0.27900
C1910       C  0.04704645  0.77727811  0.80528333     0.18100
C1911       C  0.07981809  0.72895599  0.82263895     0.12100
C1912       C  0.50747645  0.65803165  0.83090046    -0.12300
H1913       H  0.47342239  0.68184403  0.81957754     0.12400
C1914       C  0.05971683  0.81215536  0.79925422    -0.23100
H1915       H  0.09159981  0.78538380  0.80967420     0.08000
C1916       C  0.09271907  0.71256057  0.81592665     0.04400
C1917       C  0.11372734  0.70626469  0.82272862    -0.20300
C1918       C  0.12229355  0.71631077  0.83603636    -0.12600
C1919       C  0.11049320  0.73453924  0.84233031     0.13100
C1920       C  0.08944495  0.74039573  0.83555497    -0.23100
C1921       C  0.08460589  0.70212455  0.80157245    -0.06100
H1922       H  0.12288681  0.69275936  0.81777527     0.14600
C1923       C  0.12029902  0.74879428  0.85607297    -0.16300
H1924       H  0.08011967  0.75385662  0.84043281     0.08900
H1925       H  0.05618998  0.81233384  0.78809579     0.06800
H1926       H  0.08454694  0.82734345  0.80051808     0.08000
H1927       H  0.53662778  0.80148250  0.81331399     0.07000
H1928       H  0.02096174  0.68195401  0.83548390     0.01900
H1929       H  0.51716962  0.64540545  0.82514500     0.02400
H1930       H  0.48232882  0.64263787  0.83107910     0.05900
H1931       H  0.09690181  0.68990274  0.79776845     0.04900
H1932       H  0.09072010  0.72409086  0.79454662    -0.00900
H1933       H  0.05989771  0.68457879  0.80125255     0.00600
H1934       H  0.11171882  0.76567067  0.85842317     0.04200
H1935       H  0.14547172  0.76318082  0.85609524     0.06200
H1936       H  0.11111636  0.72890643  0.86441593     0.07000
C1937       C  0.15399879  0.66986841  0.90356995    -0.22600
C1938       C  0.12426676  0.66066230  0.90785502     0.09400
C1939       C  0.10425374  0.66132770  0.89825068     0.09800
C1940       C  0.11415835  0.67052052  0.88448476    -0.17500
C1941       C  0.14372305  0.67912939  0.87990782    -0.27900
C1942       C  0.16415437  0.67927131  0.88970877     0.18100
C1943       C  0.11306133  0.64771982  0.92215258     0.12100
C1944       C  0.07204245  0.65149802  0.90247141    -0.12300
H1945       H  0.09825727  0.67029185  0.87720807     0.12400
C1946       C  0.19667767  0.68964637  0.88586710    -0.23100
H1947       H  0.16911608  0.66918624  0.91108407     0.08000
C1948       C  0.10002074  0.61378107  0.92579031     0.04400
C1949       C  0.08186951  0.60044494  0.93791354    -0.20300
C1950       C  0.07621186  0.62019859  0.94643742    -0.12600
C1951       C  0.09166283  0.65475178  0.94342157     0.13100
C1952       C  0.11005250  0.66812102  0.93127638    -0.23100
C1953       C  0.10370605  0.59133740  0.91644314    -0.06100
H1954       H  0.07053932  0.57405141  0.94034605     0.14600
C1955       C  0.58611592  0.65686486  0.94925861    -0.16300
H1956       H  0.12024502  0.69420797  0.92835754     0.08900
H1957       H  0.19750909  0.67204607  0.87896692     0.06800
H1958       H  0.20948168  0.69000858  0.89500636     0.08000
H1959       H  0.20837597  0.71489018  0.88075548     0.07000
H1960       H  0.07199548  0.66796072  0.91021136     0.01900
H1961       H  0.05982299  0.62563448  0.90692270     0.02400
H1962       H  0.05944171  0.65331177  0.89362590     0.05900
H1963       H  0.09178108  0.56537876  0.92079419     0.04900
H1964       H  0.12817813  0.59950377  0.91488194    -0.00900
H1965       H  0.09422175  0.59203116  0.90636978     0.00600
H1966       H  0.59684779  0.68102048  0.94322724     0.04200
H1967       H  0.59575283  0.66093724  0.95955310     0.06200
H1968       H  0.56132529  0.64746401  0.95036164     0.07000
C1969       C  0.39157764  0.85813895  0.90336718    -0.22600
C1970       C  0.41490051  0.87075412  0.91260159     0.09400
C1971       C  0.44151517  0.86927428  0.90991508     0.09800
C1972       C  0.44507299  0.85744160  0.89755585    -0.17500
C1973       C  0.42282167  0.84725502  0.88776079    -0.27900
C1974       C  0.39525706  0.84671920  0.89087743     0.18100
C1975       C  0.41303624  0.88957694  0.92394107     0.12100
C1976       C  0.46687954  0.88168778  0.91972768    -0.12300
H1977       H  0.46590922  0.85727641  0.89529788     0.12400
C1978       C  0.37047510  0.83640034  0.88081088    -0.23100
H1979       H  0.37109881  0.85903905  0.90561708     0.08000
C1980       C  0.41665975  0.92121166  0.92121520     0.04400
C1981       C  0.41975047  0.94063568  0.93215434    -0.20300
C1982       C  0.41937957  0.92933005  0.94576488    -0.12600
C1983       C  0.41422946  0.89699287  0.94853097     0.13100
C1984       C  0.41084677  0.87739906  0.93755550    -0.23100
C1985       C  0.41877408  0.93524526  0.90674599    -0.06100
H1986       H  0.42365259  0.96537786  0.93003776     0.14600
C1987       C  0.41423977  0.88375705  0.96288779    -0.16300
H1988       H  0.40785784  0.85301668  0.93954569     0.08900
H1989       H  0.37966833  0.85180971  0.87102567     0.06800
H1990       H  0.35142827  0.83934247  0.88473439     0.08000
H1991       H  0.36099748  0.81002409  0.87889281     0.07000
H1992       H  0.45865293  0.86694476  0.92969093     0.01900
H1993       H  0.47513733  0.90800302  0.92136786     0.02400
H1994       H  0.96931112  0.89870960  0.91217561     0.05900
H1995       H  0.42290958  0.96083996  0.90649741     0.04900
H1996       H  0.39719509  0.92003719  0.90168779    -0.00900
H1997       H  0.43776126  0.93564965  0.90081434     0.00600
H1998       H  0.39515801  0.88210320  0.96919773     0.04200
H1999       H  0.43611747  0.90020023  0.96751636     0.06200
H2000       H  0.41137173  0.85869374  0.96305494     0.07000
C2001       C  0.04528355  0.93408353  0.84649515    -0.22600
C2002       C  0.04790810  0.93953121  0.83219304     0.09400
C2003       C  0.02223522  0.92162727  0.82441062     0.09800
C2004       C  0.49713262  0.89002048  0.83481733    -0.17500
C2005       C  0.49647122  0.88056228  0.84874123    -0.27900
C2006       C  0.52378260  0.89579762  0.85584624     0.18100
C2007       C  0.07766485  0.96425229  0.82551939     0.12100
C2008       C  0.02389845  0.92729271  0.80902194    -0.12300
H2009       H  0.47638311  0.87854308  0.82931677     0.12400
C2010       C  0.52519319  0.88531047  0.87052141    -0.23100
H2011       H  0.06523144  0.94769143  0.85235378     0.08000
C2012       C  0.08936773  0.99844259  0.82627989     0.04400
C2013       C  0.11647188  0.02080173  0.81886229    -0.20300
C2014       C  0.13181376  0.00974271  0.81054632    -0.12600
C2015       C  0.12071366  0.97543566  0.81027611     0.13100
C2016       C  0.09387100  0.95317912  0.81786082    -0.23100
C2017       C  0.57340644  0.00091743  0.84043701    -0.06100
H2018       H  0.12508468  0.04704725  0.81912672     0.14600
C2019       C  0.13723502  0.96201955  0.80227197    -0.16300
H2020       H  0.08502281  0.92688696  0.81758657     0.08900
H2021       H  0.54883422  0.89791395  0.87397125     0.06800
H2022       H  0.51637701  0.85833578  0.87156208     0.08000
H2023       H  0.51168148  0.89166081  0.87743083     0.07000
H2024       H  0.03991622  0.92063116  0.80433938     0.01900
H2025       H  0.03175566  0.95362865  0.80619149     0.02400
H2026       H  0.00143294  0.91213800  0.80461123     0.05900
H2027       H  0.58404340  0.02812160  0.84048831     0.04900
H2028       H  0.57425658  0.99122101  0.85091049    -0.00900
H2029       H  0.54933218  0.99068577  0.83781327     0.00600
H2030       H  0.12598275  0.44563357  0.79985850     0.04200
H2031       H  0.15815351  0.48605783  0.80123000     0.06200
H2032       H  0.13689501  0.96727875  0.79111040     0.07000
C2033       C  0.20150412  0.01569263  0.71675402    -0.22600
C2034       C  0.18689312  0.99795434  0.72910836     0.09400
C2035       C  0.16896884  0.96334008  0.72954973     0.09800
C2036       C  0.16482869  0.94730885  0.71742055    -0.17500
C2037       C  0.17812940  0.96497949  0.70474418    -0.27900
C2038       C  0.19758977  0.99978123  0.70454586     0.18100
C2039       C  0.18854377  0.01610039  0.74127409     0.12100
C2040       C  0.15402571  0.94328385  0.74282447    -0.12300
H2041       H  0.15029368  0.92076018  0.71787278     0.12400
C2042       C  0.21452678  0.02067688  0.69170180    -0.23100
H2043       H  0.20588327  0.56053530  0.71511719     0.08000
C2044       C  0.21438611  0.03021381  0.74922556     0.04400
C2045       C  0.21316909  0.04400158  0.76147808    -0.20300
C2046       C  0.17602352  0.55887015  0.76485048    -0.12600
C2047       C  0.15184235  0.54742949  0.75586809     0.13100
C2048       C  0.15454394  0.53507973  0.74351577    -0.23100
C2049       C  0.24264873  0.02949929  0.74507362    -0.06100
H2050       H  0.23235182  0.05333441  0.76801127     0.14600
C2051       C  0.12290398  0.54770422  0.75902694    -0.16300
H2052       H  0.13568268  0.52524034  0.73678787     0.08900
H2053       H  0.22994756  0.04682637  0.69382125     0.06800
H2054       H  0.19206633  0.53535826  0.68293423     0.08000
H2055       H  0.22870625  0.01136104  0.68720171     0.07000
H2056       H  0.13755173  0.94989589  0.74702027     0.01900
H2057       H  0.17157572  0.94815242  0.75038808     0.02400
H2058       H  0.14149969  0.91641410  0.74139984     0.05900
H2059       H  0.26050603  0.04095737  0.75261972     0.04900
H2060       H  0.25201358  0.04332154  0.73497810    -0.00900
H2061       H  0.23716721  0.00360579  0.74431595     0.00600
H2062       H  0.11920245  0.56189311  0.75060386     0.04200
H2063       H  0.12340337  0.55936910  0.76866874     0.06200
H2064       H  0.10343607  0.52204683  0.75985144     0.07000
C2065       C  0.42950973  0.62289136  0.88228084    -0.22600
C2066       C  0.42114622  0.59514948  0.89121886     0.09400
C2067       C  0.39733614  0.56407232  0.88805481     0.09800
C2068       C  0.38166257  0.56153013  0.87619493    -0.17500
C2069       C  0.38892745  0.58934719  0.86739255    -0.27900
C2070       C  0.41380485  0.62042631  0.87029464     0.18100
C2071       C  0.43556373  0.59884897  0.90446012     0.12100
C2072       C  0.38786766  0.53362793  0.89741114    -0.12300
H2073       H  0.36281171  0.53764311  0.87409396     0.12400
C2074       C  0.42441015  0.65089087  0.86080984    -0.23100
H2075       H  0.44801584  0.64658229  0.88483739     0.08000
C2076       C  0.45877916  0.59133952  0.90635532     0.04400
C2077       C  0.46616989  0.58680428  0.91972449    -0.20300
C2078       C  0.45066230  0.58936591  0.93128130    -0.12600
C2079       C  0.42929186  0.60010905  0.92916726     0.13100
C2080       C  0.42212392  0.60464797  0.91574796    -0.23100
C2081       C  0.47496862  0.58707001  0.89427458    -0.06100
H2082       H  0.48335177  0.57988074  0.92109962     0.14600
C2083       C  0.41262916  0.60540089  0.94077349    -0.16300
H2084       H  0.40446370  0.61073495  0.91404466     0.08900
H2085       H  0.47849332  0.11700301  0.86007088     0.06800
H2086       H  0.40696315  0.65841853  0.86060938     0.08000
H2087       H  0.42914424  0.64605244  0.85030825     0.07000
H2088       H  0.38041299  0.53680315  0.90767519     0.01900
H2089       H  0.40726513  0.52936754  0.89850520     0.02400
H2090       H  0.36883232  0.51128246  0.89336821     0.05900
H2091       H  0.40128615  0.01688337  0.90698298     0.04900
H2092       H  0.42160655  0.04525953  0.89251531    -0.00900
H2093       H  0.45857509  0.56662056  0.88829995     0.00600
H2094       H  0.39850611  0.58190423  0.94702612     0.04200
H2095       H  0.42912828  0.62456979  0.94722720     0.06200
H2096       H  0.39714331  0.61398068  0.93699539     0.07000
C2097       C  0.27202872  0.47030859  0.82598436    -0.22600
C2098       C  0.35458847  0.99603567  0.81353760     0.09400
C2099       C  0.38223064  0.01282800  0.82008048     0.09800
C2100       C  0.33267805  0.49963690  0.83298879    -0.17500
C2101       C  0.31600003  0.51524285  0.83570436    -0.27900
C2102       C  0.28494913  0.49990317  0.83255809     0.18100
C2103       C  0.34488218  0.96442318  0.80741734     0.12100
C2104       C  0.40470813  0.00090288  0.81984627    -0.12300
H2105       H  0.40981101  0.05372193  0.83212097     0.12400
C2106       C  0.26510531  0.51393943  0.83638155    -0.23100
H2107       H  0.24853344  0.45864684  0.82320494     0.08000
C2108       C  0.32746575  0.93441510  0.81528839     0.04400
C2109       C  0.31650153  0.90477071  0.80895678    -0.20300
C2110       C  0.32219878  0.90430616  0.79486632    -0.12600
C2111       C  0.33990592  0.93465581  0.78697599     0.13100
C2112       C  0.35105297  0.96437334  0.79341545    -0.23100
C2113       C  0.32009669  0.93372479  0.83035126    -0.06100
H2114       H  0.30287029  0.88176282  0.81505461     0.14600
C2115       C  0.34773380  0.93619512  0.77191008    -0.16300
H2116       H  0.29282505  0.45604466  0.79566749     0.08900
H2117       H  0.26605534  0.51764937  0.84753253     0.06800
H2118       H  0.24099784  0.49715520  0.83414018     0.08000
H2119       H  0.27265104  0.53771012  0.83044043     0.07000
H2120       H  0.41201555  0.00095139  0.80907475     0.01900
H2121       H  0.39410074  0.97546893  0.82469582     0.02400
H2122       H  0.42521271  0.01687392  0.82548278     0.05900
H2123       H  0.30618397  0.90812904  0.83498179     0.04900
H2124       H  0.30712318  0.94664470  0.83180867    -0.00900
H2125       H  0.34139537  0.94614822  0.83591740     0.00600
H2126       H  0.26284698  0.39841651  0.77141263     0.04200
H2127       H  0.35903309  0.92157839  0.77024607     0.06200
H2128       H  0.36344342  0.96187794  0.76774470     0.07000
C2129       C  0.24215630  0.81283698  0.73908434    -0.22600
C2130       C  0.25995330  0.84107053  0.73032714     0.09400
C2131       C  0.28909996  0.86478520  0.73406613     0.09800
C2132       C  0.29890281  0.86098792  0.74696656    -0.17500
C2133       C  0.28002311  0.83434259  0.75634193    -0.27900
C2134       C  0.25185603  0.80909410  0.75209998     0.18100
C2135       C  0.24576467  0.84804194  0.71852876     0.12100
C2136       C  0.30929055  0.89479186  0.72467711    -0.12300
H2137       H  0.32083382  0.87997166  0.75005651     0.12400
C2138       C  0.23108080  0.77940818  0.76150102    -0.23100
H2139       H  0.21979836  0.79470652  0.73605846     0.08000
C2140       C  0.24376148  0.83454772  0.70577965     0.04400
C2141       C  0.22902628  0.84150089  0.69519554    -0.20300
C2142       C  0.21596245  0.86126708  0.69722738    -0.12600
C2143       C  0.21881501  0.87549121  0.70997142     0.13100
C2144       C  0.23370820  0.86865256  0.72041818    -0.23100
C2145       C  0.25706592  0.81283194  0.70342164    -0.06100
H2146       H  0.22693761  0.83072100  0.68544231     0.14600
C2147       C  0.20685870  0.89845870  0.71261605    -0.16300
H2148       H  0.23572739  0.87916866  0.73023740     0.08900
H2149       H  0.20963631  0.76272898  0.75661123     0.06800
H2150       H  0.22511345  0.78733769  0.77100329     0.08000
H2151       H  0.24248368  0.76513079  0.76415844     0.07000
H2152       H  0.29819712  0.90971573  0.72279398     0.01900
H2153       H  0.31361991  0.88701821  0.71475166     0.02400
H2154       H  0.33152374  0.91073381  0.72914031     0.05900
H2155       H  0.25363498  0.80436925  0.69285472     0.04900
H2156       H  0.24608403  0.79076444  0.71075984    -0.00900
H2157       H  0.28184510  0.82667576  0.70496442     0.00600
H2158       H  0.18168529  0.88490763  0.71280565     0.04200
H2159       H  0.21607756  0.91901328  0.70453282     0.06200
H2160       H  0.21356249  0.90939125  0.72267513     0.07000
C2161       C  0.45982991  0.78806366  0.50459827    -0.22600
C2162       C  0.48038024  0.80322903  0.49325600     0.09400
C2163       C  0.49440160  0.83754375  0.49040241     0.09800
C2164       C  0.48728856  0.85600880  0.49893198    -0.17500
C2165       C  0.46660299  0.84094946  0.51027386    -0.27900
C2166       C  0.45263931  0.80649346  0.51316989     0.18100
C2167       C  0.48572454  0.78240475  0.48412497     0.12100
C2168       C  0.51708963  0.85465942  0.47847107    -0.12300
H2169       H  0.49825655  0.88249326  0.49683501     0.12400
C2170       C  0.42932676  0.78817023  0.52479049    -0.23100
H2171       H  0.44891667  0.76156104  0.50661620     0.08000
C2172       C  0.97625061  0.76443844  0.48730588     0.04400
C2173       C  0.98326775  0.74501684  0.47929409    -0.20300
C2174       C  0.96331154  0.72553250  0.46958075    -0.12600
C2175       C  0.47304517  0.75291618  0.46321949     0.13100
C2176       C  0.47033473  0.77417426  0.47194720    -0.23100
C2177       C  0.99838883  0.78569747  0.49749058    -0.06100
H2178       H  0.00457499  0.74539792  0.48045197     0.14600
C2179       C  0.45477111  0.74402172  0.45055044    -0.16300
H2180       H  0.45562908  0.78400315  0.46942281     0.08900
H2181       H  0.43790546  0.77615069  0.53206778     0.06800
H2182       H  0.40798131  0.76886544  0.52064371     0.08000
H2183       H  0.42357222  0.80419356  0.53052938     0.07000
H2184       H  0.50610265  0.84519853  0.46871861     0.01900
H2185       H  0.98596186  0.82955253  0.47362773     0.02400
H2186       H  0.52636972  0.88173378  0.47788953     0.05900
H2187       H  0.01896758  0.78323403  0.49750169     0.04900
H2188       H  0.98742450  0.77839277  0.50797303    -0.00900
H2189       H  0.00569089  0.81198573  0.49490395     0.00600
H2190       H  0.44040337  0.75561849  0.44982794     0.04200
H2191       H  0.43947081  0.71690758  0.45074759     0.06200
H2192       H  0.47020322  0.75281741  0.44122434     0.07000
C2193       C  0.51810381  0.90347948  0.60304052    -0.22600
C2194       C  0.51418228  0.88455107  0.59182064     0.09400
C2195       C  0.03497341  0.87263219  0.58626793     0.09800
C2196       C  0.05398054  0.87468973  0.59675667    -0.17500
C2197       C  0.05646091  0.89245334  0.60826194    -0.27900
C2198       C  0.03961968  0.90890036  0.60921943     0.18100
C2199       C  0.49905946  0.88854161  0.57974836     0.12100
C2200       C  0.03392740  0.85441201  0.57382568    -0.12300
H2201       H  0.06686949  0.86211221  0.59600525     0.12400
C2202       C  0.04289732  0.93100281  0.62051573    -0.23100
H2203       H  0.50799194  0.91902797  0.60312110     0.08000
C2204       C  0.46895510  0.86495758  0.57710040     0.04400
C2205       C  0.45810911  0.86589385  0.56408269    -0.20300
C2206       C  0.47667567  0.89018231  0.55385967    -0.12600
C2207       C  0.50624793  0.91500652  0.55683431     0.13100
C2208       C  0.51692138  0.91397907  0.56983286    -0.23100
C2209       C  0.44864097  0.83860369  0.58791509    -0.06100
H2210       H  0.43545199  0.84704125  0.56172091     0.14600
C2211       C  0.52796970  0.94162124  0.54637331    -0.16300
H2212       H  0.03515072  0.93237753  0.56655722     0.08900
H2213       H  0.51912209  0.91887861  0.63056861     0.06800
H2214       H  0.04850243  0.95563762  0.61593544     0.08000
H2215       H  0.06131046  0.93512735  0.62740081     0.07000
H2216       H  0.04131696  0.87155108  0.56449274     0.01900
H2217       H  0.50038643  0.82630440  0.57818999     0.02400
H2218       H  0.04911170  0.84382511  0.57458214     0.05900
H2219       H  0.42573355  0.82218620  0.58414985     0.04900
H2220       H  0.44596990  0.85030770  0.59701684    -0.00900
H2221       H  0.45862054  0.82318289  0.59107081     0.00600
H2222       H  0.02031198  0.96065441  0.54498079     0.04200
H2223       H  0.51856134  0.94007199  0.53614231     0.06200
H2224       H  0.03740970  0.93681218  0.54010346     0.07000
C2225       C  0.25299595  0.76181802  0.48164101    -0.22600
C2226       C  0.23864889  0.77787921  0.48704102     0.09400
C2227       C  0.25470444  0.81244525  0.48738931     0.09800
C2228       C  0.28468269  0.83038891  0.48200582    -0.17500
C2229       C  0.29909063  0.81466815  0.47619619    -0.27900
C2230       C  0.28307929  0.77974388  0.47617377     0.18100
C2231       C  0.20667461  0.75829922  0.49227119     0.12100
C2232       C  0.23998265  0.83045989  0.49322293    -0.12300
H2233       H  0.29663528  0.85703428  0.48202276     0.12400
C2234       C  0.29749867  0.76103728  0.47073319    -0.23100
H2235       H  0.24044252  0.73516337  0.48159806     0.08000
C2236       C  0.18246963  0.74842466  0.48341672     0.04400
C2237       C  0.15253979  0.73248675  0.48900287    -0.20300
C2238       C  0.14639477  0.72674489  0.50324527    -0.12600
C2239       C  0.17081019  0.73598409  0.51208471     0.13100
C2240       C  0.20063343  0.75152456  0.50643307    -0.23100
C2241       C  0.18832689  0.75537895  0.46812259    -0.06100
H2242       H  0.13388946  0.72519511  0.48223989     0.14600
C2243       C  0.16579364  0.72897015  0.52743195    -0.16300
H2244       H  0.21948752  0.75913853  0.51310113     0.08900
H2245       H  0.30200470  0.76618851  0.45948113     0.06800
H2246       H  0.28245190  0.73397269  0.47265492     0.08000
H2247       H  0.31903869  0.76817212  0.47584764     0.07000
H2248       H  0.23322003  0.82234004  0.50421003     0.01900
H2249       H  0.21953173  0.82516758  0.48751249     0.02400
H2250       H  0.25560668  0.85756699  0.49249194     0.05900
H2251       H  0.16687936  0.74638687  0.46269233     0.04900
H2252       H  0.20029652  0.74288652  0.46424572    -0.00900
H2253       H  0.20259772  0.78234992  0.46564105     0.00600
H2254       H  0.18729460  0.73557096  0.53249445     0.04200
H2255       H  0.14978661  0.70229876  0.52992269     0.06200
H2256       H  0.15662097  0.74371496  0.53183071     0.07000
C2257       C  0.11190332  0.78210523  0.57865527    -0.22600
C2258       C  0.08124590  0.76029734  0.57647795     0.09400
C2259       C  0.05880248  0.75479947  0.58659166     0.09800
C2260       C  0.06761732  0.77178952  0.59862754    -0.17500
C2261       C  0.09823621  0.79464130  0.60053612    -0.27900
C2262       C  0.12068252  0.79972864  0.59045515     0.18100
C2263       C  0.07381725  0.74403688  0.56337777     0.12100
C2264       C  0.02565130  0.73184148  0.58450279    -0.12300
H2265       H  0.05050851  0.76796629  0.60639835     0.12400
C2266       C  0.15395691  0.82316578  0.59219597    -0.23100
H2267       H  0.12901947  0.78576627  0.57091204     0.08000
C2268       C  0.07828395  0.76243454  0.55081927     0.04400
C2269       C  0.07755099  0.74811921  0.53849263    -0.20300
C2270       C  0.07204705  0.71574848  0.53845115    -0.12600
C2271       C  0.06503254  0.69638428  0.55100442     0.13100
C2272       C  0.06611409  0.71091589  0.56333762    -0.23100
C2273       C  0.08446826  0.79738933  0.55044362    -0.06100
H2274       H  0.08256145  0.76270825  0.52884253     0.14600
C2275       C  0.05822475  0.66116467  0.55194355    -0.16300
H2276       H  0.06261528  0.69685269  0.57301430     0.08900
H2277       H  0.15845527  0.84884080  0.59221002     0.06800
H2278       H  0.16836184  0.82235243  0.58374701     0.08000
H2279       H  0.16088484  0.81644839  0.60198464     0.07000
H2280       H  0.02138799  0.70648840  0.58343210     0.01900
H2281       H  0.01893626  0.74031035  0.57508305     0.02400
H2282       H  0.01107771  0.73099795  0.59327988     0.05900
H2283       H  0.08629281  0.80772606  0.53976862     0.04900
H2284       H  0.10611918  0.81343098  0.55529245    -0.00900
H2285       H  0.06563582  0.79804399  0.55604069     0.00600
H2286       H  0.07520748  0.65915405  0.55826214     0.04200
H2287       H  0.05876508  0.65166709  0.54188654     0.06200
H2288       H  0.03527482  0.64503530  0.55692456     0.07000
C2289       C  0.23888604  0.54058791  0.50192578    -0.22600
C2290       C  0.22914102  0.53517410  0.48852167     0.09400
C2291       C  0.24163940  0.52190605  0.47953165     0.09800
C2292       C  0.26251397  0.51280565  0.48438663    -0.17500
C2293       C  0.27156022  0.51726362  0.49797167    -0.27900
C2294       C  0.26028876  0.53242332  0.50669305     0.18100
C2295       C  0.20780003  0.54623008  0.48384668     0.12100
C2296       C  0.23128068  0.01185967  0.46837982    -0.12300
H2297       H  0.26673907  0.98989978  0.47980817     0.12400
C2298       C  0.27093757  0.54127300  0.52098295    -0.23100
H2299       H  0.23012396  0.55188211  0.50866022     0.08000
C2300       C  0.17591982  0.52584185  0.48539937     0.04400
C2301       C  0.15702732  0.53791991  0.48070750    -0.20300
C2302       C  0.16930036  0.56987174  0.47434149    -0.12600
C2303       C  0.20146299  0.59045261  0.47321042     0.13100
C2304       C  0.22008582  0.57836161  0.47802019    -0.23100
C2305       C  0.15442674  0.96999006  0.49022407    -0.06100
H2306       H  0.12597973  0.00356436  0.48227594     0.14600
C2307       C  0.21671880  0.62542296  0.46709616    -0.16300
H2308       H  0.24458390  0.59399631  0.47708202     0.08900
H2309       H  0.25172783  0.52663628  0.52859219     0.06800
H2310       H  0.27926902  0.56788182  0.52195150     0.08000
H2311       H  0.28995877  0.53717651  0.52351714     0.07000
H2312       H  0.23846499  0.03800020  0.46551115     0.01900
H2313       H  0.20700485  0.99612512  0.46617402     0.02400
H2314       H  0.24483369  0.00469992  0.46186948     0.05900
H2315       H  0.12970723  0.95674663  0.48850940     0.04900
H2316       H  0.16942889  0.49196887  0.50251584    -0.00900
H2317       H  0.16558727  0.96127689  0.48305448     0.00600
H2318       H  0.24160591  0.63868898  0.46841577     0.04200
H2319       H  0.20726413  0.63922474  0.47214189     0.06200
H2320       H  0.21346407  0.62536796  0.45592815     0.07000
C2321       C  0.25339490  0.92961855  0.58300240    -0.22600
C2322       C  0.25072718  0.90113168  0.57777653     0.09400
C2323       C  0.23953732  0.87203407  0.58637906     0.09800
C2324       C  0.22904198  0.87147139  0.59984338    -0.17500
C2325       C  0.22943179  0.89931231  0.60466699    -0.27900
C2326       C  0.24292599  0.92911011  0.59635595     0.18100
C2327       C  0.25876753  0.90292215  0.56305764     0.12100
C2328       C  0.23799880  0.84158462  0.58125380    -0.12300
H2329       H  0.21857125  0.84865889  0.60626487     0.12400
C2330       C  0.24580131  0.96051739  0.60114702    -0.23100
H2331       H  0.26401406  0.47489209  0.57838119     0.08000
C2332       C  0.23702323  0.89638197  0.55312818     0.04400
C2333       C  0.24683131  0.90674569  0.53935965    -0.20300
C2334       C  0.28135470  0.45026350  0.53497814    -0.12600
C2335       C  0.30098746  0.44920433  0.54492404     0.13100
C2336       C  0.28950889  0.91790396  0.55897481    -0.23100
C2337       C  0.20367179  0.88053051  0.55715814    -0.06100
H2338       H  0.23016370  0.90287413  0.53183256     0.14600
C2339       C  0.33383763  0.46039095  0.54158632    -0.16300
H2340       H  0.30594501  0.92303007  0.56675766     0.08900
H2341       H  0.23245496  0.96816599  0.59463207     0.06800
H2342       H  0.26822625  0.49572135  0.60378684     0.08000
H2343       H  0.23782008  0.95800260  0.61200165     0.07000
H2344       H  0.26116367  0.84707056  0.57802845     0.01900
H2345       H  0.22333019  0.83332826  0.57236760     0.02400
H2346       H  0.22855224  0.82097571  0.58932008     0.05900
H2347       H  0.18989510  0.87805642  0.54813363     0.04900
H2348       H  0.19993276  0.89567411  0.56444879    -0.00900
H2349       H  0.19530679  0.85552253  0.56207531     0.00600
H2350       H  0.34543951  0.45779282  0.55068349     0.04200
H2351       H  0.34622646  0.48677480  0.53782636     0.06200
H2352       H  0.33521555  0.44493417  0.53372799     0.07000
C2353       C  0.40846330  0.68960724  0.39167606    -0.22600
C2354       C  0.43050620  0.68123432  0.38850253     0.09400
C2355       C  0.43258110  0.67147271  0.37535494     0.09800
C2356       C  0.41212910  0.67000946  0.36559803    -0.17500
C2357       C  0.38977451  0.67832726  0.36870235    -0.27900
C2358       C  0.38832584  0.68880397  0.38194597     0.18100
C2359       C  0.45063826  0.68257487  0.39941525     0.12100
C2360       C  0.45665980  0.66318743  0.37160730    -0.12300
H2361       H  0.41366747  0.66233252  0.35548784     0.12400
C2362       C  0.36678906  0.70064035  0.38587809    -0.23100
H2363       H  0.40730025  0.69719474  0.40186066     0.08000
C2364       C  0.47353675  0.71293801  0.40370321     0.04400
C2365       C  0.48727606  0.71348683  0.41605054    -0.20300
C2366       C  0.47854417  0.68432361  0.42420562    -0.12600
C2367       C  0.45754062  0.65352532  0.41912687     0.13100
C2368       C  0.44379621  0.65321899  0.40678974    -0.23100
C2369       C  0.48276793  0.74475710  0.39542830    -0.06100
H2370       H  0.50380502  0.73700098  0.41970298     0.14600
C2371       C  0.95335343  0.63243852  0.42177409    -0.16300
H2372       H  0.42625722  0.63004782  0.40326710     0.08900
H2373       H  0.37077092  0.71025243  0.39624783     0.06800
H2374       H  0.34296856  0.68007711  0.38606509     0.08000
H2375       H  0.37007928  0.72099869  0.37848934     0.07000
H2376       H  0.96777843  0.67368671  0.37538500     0.01900
H2377       H  0.98763346  0.71803193  0.37216341     0.02400
H2378       H  0.96874088  0.69168582  0.35858555     0.05900
H2379       H  0.50153128  0.76622223  0.40008361     0.04900
H2380       H  0.46322561  0.74896002  0.39477841    -0.00900
H2381       H  0.49062245  0.74355149  0.38491796     0.00600
H2382       H  0.43689527  0.61972492  0.43700189     0.04200
H2383       H  0.97490684  0.63279844  0.42377611     0.06200
H2384       H  0.94131790  0.61372847  0.41422870     0.07000
C2385       C  0.37422712  0.80093793  0.42343344    -0.22600
C2386       C  0.37521201  0.82041649  0.41189433     0.09400
C2387       C  0.37776220  0.85134079  0.41344052     0.09800
C2388       C  0.37707185  0.86112213  0.42666684    -0.17500
C2389       C  0.37323832  0.84023258  0.43823767    -0.27900
C2390       C  0.37333357  0.81056712  0.43666367     0.18100
C2391       C  0.36781385  0.80531995  0.39867378     0.12100
C2392       C  0.37969673  0.87313995  0.40115512    -0.12300
H2393       H  0.37740104  0.88408716  0.42796043     0.12400
C2394       C  0.37225268  0.78849822  0.44866133    -0.23100
H2395       H  0.37257973  0.77731963  0.42211203     0.08000
C2396       C  0.38995872  0.80592463  0.38965233     0.04400
C2397       C  0.38084167  0.79002958  0.37741660    -0.20300
C2398       C  0.35009318  0.77318938  0.37431267    -0.12600
C2399       C  0.32800974  0.77299089  0.38332669     0.13100
C2400       C  0.33724481  0.78910075  0.39542464    -0.23100
C2401       C  0.42288140  0.82281098  0.39305832    -0.06100
H2402       H  0.39754398  0.78975659  0.37047730     0.14600
C2403       C  0.29467805  0.75652175  0.38047486    -0.16300
H2404       H  0.32042400  0.78889718  0.40245597     0.08900
H2405       H  0.39222068  0.78500339  0.44780354     0.06800
H2406       H  0.35121504  0.76410744  0.44859338     0.08000
H2407       H  0.37286142  0.79882570  0.45867482     0.07000
H2408       H  0.35902793  0.86024645  0.39519599     0.01900
H2409       H  0.39996923  0.87930263  0.39449425     0.02400
H2410       H  0.38163551  0.89654994  0.40420882     0.05900
H2411       H  0.43718273  0.82082888  0.38487822     0.04900
H2412       H  0.42542067  0.81131939  0.40277599    -0.00900
H2413       H  0.43134811  0.84934380  0.39427002     0.00600
H2414       H  0.28131195  0.73657791  0.38855750     0.04200
H2415       H  0.28939605  0.74574222  0.37037767     0.06200
H2416       H  0.28709745  0.77494032  0.38059358     0.07000
C2417       C  0.17912487  0.62469162  0.38856832    -0.22600
C2418       C  0.17770368  0.65072001  0.39428431     0.09400
C2419       C  0.19128607  0.68189727  0.38694066     0.09800
C2420       C  0.20759364  0.68676747  0.37445610    -0.17500
C2421       C  0.21053288  0.66118845  0.36924907    -0.27900
C2422       C  0.19511621  0.62946524  0.37607068     0.18100
C2423       C  0.16507968  0.64523522  0.40860442     0.12100
C2424       C  0.18887171  0.71004757  0.39229411    -0.12300
H2425       H  0.21944683  0.71103627  0.36912652     0.12400
C2426       C  0.19578623  0.60071387  0.37023914    -0.23100
H2427       H  0.16879206  0.60083601  0.39422635     0.08000
C2428       C  0.13453559  0.62151684  0.41231602     0.04400
C2429       C  0.12571828  0.61180741  0.42624599    -0.20300
C2430       C  0.14665721  0.62565798  0.43650282    -0.12600
C2431       C  0.17609194  0.65227049  0.43282766     0.13100
C2432       C  0.18520597  0.66102684  0.41892338    -0.23100
C2433       C  0.11138081  0.60620472  0.40161528    -0.06100
H2434       H  0.10285089  0.59202540  0.42907211     0.14600
C2435       C  0.19819311  0.67235081  0.44325168    -0.16300
H2436       H  0.20856115  0.67958482  0.41613068     0.08900
H2437       H  0.18678220  0.59717955  0.35981295     0.06800
H2438       H  0.18166710  0.57746379  0.37667493     0.08000
H2439       H  0.21934712  0.60525755  0.36961567     0.07000
H2440       H  0.20020633  0.71710700  0.40213578     0.01900
H2441       H  0.16457656  0.70261653  0.39389281     0.02400
H2442       H  0.19980259  0.73220102  0.38498857     0.05900
H2443       H  0.08836888  0.58909217  0.40634637     0.04900
H2444       H  0.11752671  0.59198683  0.39485026    -0.00900
H2445       H  0.11026018  0.62588269  0.39532087     0.00600
H2446       H  0.21912603  0.67075231  0.44216309     0.04200
H2447       H  0.18858113  0.66447958  0.45392898     0.06200
H2448       H  0.20446281  0.69857273  0.44141070     0.07000
C2449       C  0.33624180  0.94666925  0.05238830    -0.22600
C2450       C  0.33141194  0.91575759  0.05707343     0.09400
C2451       C  0.33869271  0.89737951  0.04837968     0.09800
C2452       C  0.35418342  0.91221077  0.03569779    -0.17500
C2453       C  0.36220488  0.94480778  0.03172771    -0.27900
C2454       C  0.35113701  0.96124437  0.03968801     0.18100
C2455       C  0.32245167  0.90544392  0.07167537     0.12100
C2456       C  0.33132031  0.86289226  0.05279006    -0.12300
H2457       H  0.36221387  0.89941489  0.02945893     0.12400
C2458       C  0.35538501  0.99452624  0.03523799    -0.23100
H2459       H  0.32970856  0.96020912  0.05898122     0.08000
C2460       C  0.34474181  0.91434384  0.08149878     0.04400
C2461       C  0.33564398  0.90611890  0.09538835    -0.20300
C2462       C  0.30482259  0.88985122  0.09973852    -0.12600
C2463       C  0.28247225  0.88149283  0.08982775     0.13100
C2464       C  0.29168942  0.88927145  0.07587106    -0.23100
C2465       C  0.37816727  0.93303633  0.07733854    -0.06100
H2466       H  0.35280318  0.91290566  0.10292896     0.14600
C2467       C  0.24897418  0.86396854  0.09373348    -0.16300
H2468       H  0.27491540  0.88315404  0.06818167     0.08900
H2469       H  0.36975410  0.01284504  0.04252330     0.06800
H2470       H  0.33290851  0.99299292  0.03524343     0.08000
H2471       H  0.36587605  0.00326958  0.02472359     0.07000
H2472       H  0.30642724  0.84704942  0.05486967     0.01900
H2473       H  0.34311351  0.86303064  0.06224997     0.02400
H2474       H  0.33843566  0.85193357  0.04473944     0.05900
H2475       H  0.39250278  0.93821275  0.08635146     0.04900
H2476       H  0.38418303  0.95697997  0.07187541    -0.00900
H2477       H  0.38366794  0.91845746  0.07046507     0.00600
H2478       H  0.24363511  0.88000558  0.09974332     0.04200
H2479       H  0.24223128  0.84056288  0.09984842     0.06200
H2480       H  0.23500724  0.85785775  0.08456961     0.07000
C2481       C  0.37935921  0.79454055  0.16580404    -0.22600
C2482       C  0.39003322  0.82487125  0.15840344     0.09400
C2483       C  0.42158545  0.84556133  0.15561831     0.09800
C2484       C  0.44186410  0.83612314  0.16092293    -0.17500
C2485       C  0.43132234  0.80630866  0.16889976    -0.27900
C2486       C  0.39939672  0.78472862  0.17095138     0.18100
C2487       C  0.36753141  0.83368575  0.15322345     0.12100
C2488       C  0.43378739  0.87744048  0.14694893    -0.12300
H2489       H  0.46609223  0.85256943  0.15913433     0.12400
C2490       C  0.38590096  0.75083976  0.17818514    -0.23100
H2491       H  0.35505810  0.77843395  0.16758511     0.08000
C2492       C  0.35020439  0.81862696  0.14191994     0.04400
C2493       C  0.32964220  0.82797994  0.13716130    -0.20300
C2494       C  0.32610239  0.85239006  0.14325744    -0.12600
C2495       C  0.34327539  0.86736627  0.15468979     0.13100
C2496       C  0.36348962  0.85743715  0.15963805    -0.23100
C2497       C  0.35420166  0.79355541  0.13453032    -0.06100
H2498       H  0.31681222  0.81682082  0.12828869     0.14600
C2499       C  0.34221736  0.89494024  0.16144404    -0.16300
H2500       H  0.37683596  0.86896309  0.16833468     0.08900
H2501       H  0.39586078  0.73702646  0.17356945     0.06800
H2502       H  0.36090659  0.73623056  0.17727427     0.08000
H2503       H  0.38998593  0.75268316  0.18929350     0.07000
H2504       H  0.42757530  0.89410637  0.15192900     0.01900
H2505       H  0.42404553  0.87237444  0.13667944     0.02400
H2506       H  0.45891940  0.89037839  0.14549631     0.05900
H2507       H  0.33954042  0.78502318  0.12562419     0.04900
H2508       H  0.34812540  0.77168794  0.14159526    -0.00900
H2509       H  0.37819351  0.80460256  0.13068433     0.00600
H2510       H  0.33464855  0.88734108  0.17240119     0.04200
H2511       H  0.32670001  0.90210362  0.15660662     0.06200
H2512       H  0.36527913  0.91710236  0.16084115     0.07000
C2513       C  0.45942751  0.72777989  0.22886013    -0.22600
C2514       C  0.43857256  0.73235150  0.23655700     0.09400
C2515       C  0.42627396  0.75090233  0.23068694     0.09800
C2516       C  0.43560371  0.76510396  0.21729934    -0.17500
C2517       C  0.45707671  0.76140151  0.20954409    -0.27900
C2518       C  0.97203904  0.75548697  0.21544873     0.18100
C2519       C  0.42948875  0.71792207  0.25082047     0.12100
C2520       C  0.40314629  0.75564778  0.23855988    -0.12300
H2521       H  0.42630897  0.77966753  0.21295175     0.12400
C2522       C  0.99741099  0.75226832  0.20895348    -0.23100
H2523       H  0.97093596  0.72823289  0.23419089     0.08000
C2524       C  0.40453334  0.68589467  0.25370497     0.04400
C2525       C  0.39040668  0.67703787  0.26689580    -0.20300
C2526       C  0.40076062  0.69961568  0.27712673    -0.12600
C2527       C  0.42775052  0.73034309  0.27461193     0.13100
C2528       C  0.44198830  0.73897438  0.26146762    -0.23100
C2529       C  0.39156407  0.66205918  0.24263423    -0.06100
H2530       H  0.36971180  0.65349109  0.26890034     0.14600
C2531       C  0.44062338  0.75574624  0.28511792    -0.16300
H2532       H  0.46132227  0.76349239  0.25918911     0.08900
H2533       H  0.99045113  0.74072353  0.19903227     0.06800
H2534       H  0.00339819  0.73663515  0.21557425     0.08000
H2535       H  0.01816857  0.77687050  0.20731486     0.07000
H2536       H  0.41315685  0.76895714  0.24786142     0.01900
H2537       H  0.38296541  0.73130541  0.24166029     0.02400
H2538       H  0.39538458  0.77022675  0.23232950     0.05900
H2539       H  0.37198381  0.63807666  0.24663984     0.04900
H2540       H  0.40927835  0.65736840  0.23835846    -0.00900
H2541       H  0.38368769  0.67248867  0.23429965     0.00600
H2542       H  0.46443515  0.76225617  0.28683209     0.04200
H2543       H  0.42779893  0.74708874  0.29514409     0.06200
H2544       H  0.44038864  0.77828385  0.28130050     0.07000
C2545       C  0.25883903  0.54874511  0.26098960    -0.22600
C2546       C  0.25449688  0.56263653  0.24886266     0.09400
C2547       C  0.25354703  0.59208623  0.24898587     0.09800
C2548       C  0.25824704  0.60782782  0.26122375    -0.17500
C2549       C  0.26422677  0.59498484  0.27329436    -0.27900
C2550       C  0.26397604  0.56462866  0.27323446     0.18100
C2551       C  0.25483009  0.54832803  0.23583463     0.12100
C2552       C  0.24886469  0.60761260  0.23608150    -0.12300
H2553       H  0.25808736  0.63081577  0.26126955     0.12400
C2554       C  0.27096226  0.54974157  0.28568477    -0.23100
H2555       H  0.25965413  0.52615884  0.26067881     0.08000
C2556       C  0.28252809  0.55488099  0.22950063     0.04400
C2557       C  0.28248970  0.54367188  0.21653129    -0.20300
C2558       C  0.25541939  0.52589091  0.20972502    -0.12600
C2559       C  0.22746136  0.51854391  0.21630216     0.13100
C2560       C  0.22760721  0.52994641  0.22932582    -0.23100
C2561       C  0.31224751  0.57442250  0.23627617    -0.06100
H2562       H  0.30389093  0.54904352  0.21163594     0.14600
C2563       C  0.21845116  0.01783171  0.20688247    -0.16300
H2564       H  0.20651605  0.52518390  0.23435267     0.08900
H2565       H  0.27140220  0.52703896  0.28343368     0.06800
H2566       H  0.25329299  0.54282604  0.29399873     0.08000
H2567       H  0.29363276  0.56765654  0.28923655     0.07000
H2568       H  0.22653065  0.59043161  0.23201433     0.01900
H2569       H  0.26715822  0.61325575  0.22824274     0.02400
H2570       H  0.24924745  0.63094060  0.23795924     0.05900
H2571       H  0.33184339  0.57802666  0.22971604     0.04900
H2572       H  0.31198354  0.56125729  0.24607655    -0.00900
H2573       H  0.31583204  0.59910598  0.23836284     0.00600
H2574       H  0.19386216  0.00273226  0.20984984     0.04200
H2575       H  0.22292701  0.00818542  0.19759054     0.06200
H2576       H  0.22393774  0.04347506  0.20402328     0.07000
C2577       C  0.35831717  0.56735455  0.15134505    -0.22600
C2578       C  0.36750314  0.60085751  0.15161900     0.09400
C2579       C  0.34955473  0.61058322  0.15891899     0.09800
C2580       C  0.32303034  0.58649476  0.16614004    -0.17500
C2581       C  0.31389730  0.55288293  0.16612285    -0.27900
C2582       C  0.33163165  0.54310985  0.15853392     0.18100
C2583       C  0.39661899  0.62562436  0.14462630     0.12100
C2584       C  0.35856202  0.64640103  0.15915411    -0.12300
H2585       H  0.30936808  0.59396523  0.17190014     0.12400
C2586       C  0.32340617  0.50751275  0.15848794    -0.23100
H2587       H  0.37243395  0.56028312  0.14570523     0.08000
C2588       C  0.42370645  0.63988783  0.15169584     0.04400
C2589       C  0.45063062  0.66430617  0.14484989    -0.20300
C2590       C  0.45133821  0.67402735  0.13094628    -0.12600
C2591       C  0.42403066  0.65933767  0.12383959     0.13100
C2592       C  0.39692977  0.63552222  0.13085683    -0.23100
C2593       C  0.42427079  0.62885929  0.16638318    -0.06100
H2594       H  0.47147451  0.67505626  0.15029555     0.14600
C2595       C  0.92287662  0.69979410  0.11565281    -0.16300
H2596       H  0.37585415  0.62435741  0.12558201     0.08900
H2597       H  0.34072588  0.50466283  0.15261740     0.06800
H2598       H  0.30140707  0.49302026  0.15363470     0.08000
H2599       H  0.32170477  0.49726276  0.16916657     0.07000
H2600       H  0.35990982  0.65680108  0.14853969     0.01900
H2601       H  0.38104174  0.66048499  0.16367075     0.02400
H2602       H  0.34189531  0.64971201  0.16533206     0.05900
H2603       H  0.44740070  0.64248454  0.17035680     0.04900
H2604       H  0.41681700  0.60218654  0.16713534    -0.00900
H2605       H  0.40879220  0.63307047  0.17300180     0.00600
H2606       H  0.93308567  0.69748759  0.10599059     0.04200
H2607       H  0.93513211  0.72584376  0.11840181     0.06200
H2608       H  0.89899156  0.69283580  0.11381609     0.07000
C2609       C  0.51178784  0.68594559  0.06967544    -0.22600
C2610       C  0.03335592  0.69870488  0.06740095     0.09400
C2611       C  0.05572118  0.71025756  0.07723188     0.09800
C2612       C  0.05036050  0.72192208  0.08929423    -0.17500
C2613       C  0.02338914  0.72270870  0.09154347    -0.27900
C2614       C  0.50647861  0.69972856  0.08100696     0.18100
C2615       C  0.03407636  0.67952860  0.05604255     0.12100
C2616       C  0.08494135  0.70995487  0.07504971    -0.12300
H2617       H  0.06658128  0.72885962  0.09727381     0.12400
C2618       C  0.48106538  0.70735422  0.08043044    -0.23100
H2619       H  0.49648048  0.67916466  0.06131239     0.08000
C2620       C  0.52312948  0.62570676  0.06014770     0.04400
C2621       C  0.51953166  0.60715787  0.04888291    -0.20300
C2622       C  0.02470058  0.64055098  0.03361298    -0.12600
C2623       C  0.03585495  0.67481260  0.03128925     0.13100
C2624       C  0.04074034  0.69397868  0.04259969    -0.23100
C2625       C  0.50996288  0.60811749  0.07404802    -0.06100
H2626       H  0.50775845  0.58050171  0.05041223     0.14600
C2627       C  0.04055885  0.69086478  0.01703491    -0.16300
H2628       H  0.04817632  0.71997175  0.04095923     0.08900
H2629       H  0.45908356  0.68422224  0.07968907     0.06800
H2630       H  0.48486326  0.72395443  0.07118729     0.08000
H2631       H  0.47965123  0.72005739  0.08941666     0.07000
H2632       H  0.09730507  0.72538352  0.06558943     0.01900
H2633       H  0.08035316  0.68452977  0.07392984     0.02400
H2634       H  0.09995607  0.71996971  0.08376282     0.05900
H2635       H  0.49912556  0.58094694  0.07370646     0.04900
H2636       H  0.49240514  0.61371002  0.07773768    -0.00900
H2637       H  0.52803597  0.61611194  0.08152986     0.00600
H2638       H  0.01896845  0.67875414  0.01164840     0.04200
H2639       H  0.05834575  0.68877960  0.01121357     0.06200
H2640       H  0.04801597  0.71747608  0.01720507     0.07000
C2641       C  0.20425961  0.70563102  0.26072238    -0.22600
C2642       C  0.22463508  0.73319392  0.25219445     0.09400
C2643       C  0.25295408  0.75624477  0.25698558     0.09800
C2644       C  0.26120911  0.74984316  0.26987880    -0.17500
C2645       C  0.24188301  0.72080412  0.27796760    -0.27900
C2646       C  0.21264132  0.69881321  0.27351717     0.18100
C2647       C  0.21727798  0.73508398  0.23775625     0.12100
C2648       C  0.27503568  0.78655202  0.24819776    -0.12300
H2649       H  0.28364354  0.76656616  0.27331587     0.12400
C2650       C  0.19061200  0.66679025  0.28135727    -0.23100
H2651       H  0.18244148  0.68812270  0.25694988     0.08000
C2652       C  0.22038616  0.71532923  0.22820164     0.04400
C2653       C  0.21153110  0.71622106  0.21478997    -0.20300
C2654       C  0.19948880  0.73628022  0.21067438    -0.12600
C2655       C  0.19744000  0.75702936  0.22020786     0.13100
C2656       C  0.20644203  0.75611097  0.23364768    -0.23100
C2657       C  0.23282689  0.69308188  0.23219158    -0.06100
H2658       H  0.21350195  0.70061241  0.20753021     0.14600
C2659       C  0.18463082  0.77910538  0.21662297    -0.16300
H2660       H  0.20438921  0.77128637  0.24110563     0.08900
H2661       H  0.18555072  0.64593047  0.27495058     0.06800
H2662       H  0.16915121  0.66661211  0.28378877     0.08000
H2663       H  0.19921678  0.66248648  0.29109371     0.07000
H2664       H  0.26464940  0.80198554  0.24578388     0.01900
H2665       H  0.28093566  0.77927033  0.23849483     0.02400
H2666       H  0.29637390  0.80174867  0.25345506     0.05900
H2667       H  0.23434453  0.67986616  0.22337622     0.04900
H2668       H  0.21783816  0.67430580  0.24035801    -0.00900
H2669       H  0.25596506  0.70790452  0.23601582     0.00600
H2670       H  0.18348486  0.79217155  0.22557171     0.04200
H2671       H  0.16122777  0.76426373  0.21307881     0.06200
H2672       H  0.19935961  0.79816427  0.20849642     0.07000
C2673       C  0.08164254  0.56326039  0.14698433    -0.22600
C2674       C  0.10857127  0.57481265  0.15388954     0.09400
C2675       C  0.12327684  0.55630008  0.15479392     0.09800
C2676       C  0.11080570  0.52648470  0.14856421    -0.17500
C2677       C  0.08357800  0.51430775  0.14162501    -0.27900
C2678       C  0.06867971  0.53301936  0.14090539     0.18100
C2679       C  0.12109936  0.60640480  0.16023148     0.12100
C2680       C  0.15217029  0.56806833  0.16231678    -0.12300
H2681       H  0.12262147  0.51268240  0.14915479     0.12400
C2682       C  0.03870215  0.52109726  0.13434449    -0.23100
H2683       H  0.07059768  0.57788946  0.14651120     0.08000
C2684       C  0.13955616  0.63637639  0.15250865     0.04400
C2685       C  0.15226217  0.66571482  0.15913399    -0.20300
C2686       C  0.14713295  0.66561572  0.17329757    -0.12600
C2687       C  0.12827123  0.63546639  0.18100777     0.13100
C2688       C  0.11540005  0.60610839  0.17431065    -0.23100
C2689       C  0.14613033  0.63731185  0.13735196    -0.06100
H2690       H  0.16659781  0.68888770  0.15324426     0.14600
C2691       C  0.12080527  0.63405274  0.19610322    -0.16300
H2692       H  0.10102623  0.58273890  0.18006196     0.08900
H2693       H  0.04118960  0.51902718  0.12320014     0.06800
H2694       H  0.02996444  0.53833756  0.13545309     0.08000
H2695       H  0.02160943  0.49691750  0.13939826     0.07000
H2696       H  0.14797252  0.57055948  0.17325422     0.01900
H2697       H  0.17001276  0.59234879  0.15761683     0.02400
H2698       H  0.16082992  0.55060190  0.16194937     0.05900
H2699       H  0.16125325  0.66289266  0.13291745     0.04900
H2700       H  0.12459607  0.62667345  0.13192190    -0.00900
H2701       H  0.15746483  0.62280510  0.13551696     0.00600
H2702       H  0.10433215  0.60853609  0.20020857     0.04200
H2703       H  0.11058601  0.64968658  0.19787777     0.06200
H2704       H  0.14167277  0.64275139  0.20193229     0.07000
C2705       C  0.98604034  0.43739604  0.09438314    -0.22600
C2706       C  0.00246435  0.44344639  0.08189921     0.09400
C2707       C  0.03912353  0.94342649  0.09013781     0.09800
C2708       C  0.05475757  0.94777158  0.10221280    -0.17500
C2709       C  0.06013858  0.97343477  0.11061988    -0.27900
C2710       C  0.99833026  0.43493776  0.10681427     0.18100
C2711       C  0.99240739  0.45424078  0.06963512     0.12100
C2712       C  0.03473363  0.91636179  0.08116053    -0.12300
H2713       H  0.06418813  0.93206004  0.10466914     0.12400
C2714       C  0.98065292  0.42984399  0.12010046    -0.23100
H2715       H  0.96438647  0.43659068  0.09443454     0.08000
C2716       C  0.98735744  0.95625577  0.07009579     0.04400
C2717       C  0.97276005  0.44671978  0.04688957    -0.20300
C2718       C  0.98089602  0.48012161  0.04538702    -0.12600
C2719       C  0.99363485  0.50036510  0.05643745     0.13100
C2720       C  0.99943763  0.48715610  0.06837938    -0.23100
C2721       C  0.45318071  0.91636039  0.07650380    -0.06100
H2722       H  0.45064985  0.94281495  0.05148510     0.14600
C2723       C  0.00252724  0.53624319  0.05552472    -0.16300
H2724       H  0.01030198  0.50281214  0.07669499     0.08900
H2725       H  0.97707004  0.40710931  0.12586595     0.06800
H2726       H  0.95807226  0.42722169  0.11835012     0.08000
H2727       H  0.99321614  0.45112812  0.12641073     0.07000
H2728       H  0.04663385  0.92701306  0.07099399     0.01900
H2729       H  0.01012652  0.89993790  0.07975276     0.02400
H2730       H  0.04384050  0.90115421  0.08575293     0.05900
H2731       H  0.43194622  0.90495247  0.07083315     0.04900
H2732       H  0.96798417  0.95871858  0.08946377    -0.00900
H2733       H  0.46024735  0.89771412  0.07839764     0.00600
H2734       H  0.01368367  0.54861389  0.06485897     0.06600
H2735       H  0.98199962  0.53855251  0.05446073     0.06200
H2736       H  0.01868598  0.54938585  0.04658861     0.07000
C2737       C  0.54565748  0.44479449  0.11983368     0.80100
N2738       N  0.57762271  0.99243805  0.12750082    -0.78200
C2739       C  0.59947319  0.00082920  0.13674842     0.82600
N2740       N  0.58832156  0.46421093  0.13888812    -0.78100
C2741       C  0.57778889  0.43449103  0.13368903     0.82700
N2742       N  0.55638755  0.42462049  0.12410660    -0.79900
C2743       C  0.70109959  0.24637228  0.19815166     0.80100
N2744       N  0.69598193  0.26940842  0.19184917    -0.78200
C2745       C  0.68810559  0.26674457  0.17860270     0.82600
N2746       N  0.68546055  0.24124081  0.17173200    -0.78100
C2747       C  0.69174232  0.21890489  0.17772420     0.82700
N2748       N  0.69911663  0.22131886  0.19105708    -0.79900
C2749       C  0.51227177  0.19982031  0.11160783     0.80100
N2750       N  0.53197642  0.22620391  0.11830493    -0.78200
C2751       C  0.52818021  0.22664955  0.13200167     0.82600
N2752       N  0.50490119  0.20040500  0.13915026    -0.78100
C2753       C  0.98968870  0.18114984  0.12749781     0.82700
N2754       N  0.99723873  0.17742823  0.11456685    -0.79900
C2755       C  0.76547375  0.00409894  0.19937178     0.80100
N2756       N  0.74340421  0.48254038  0.18916046    -0.78200
C2757       C  0.74485370  0.47679441  0.17578062     0.82600
N2758       N  0.77657276  0.98481860  0.17509845    -0.78100
C2759       C  0.79866027  0.01242217  0.18042627     0.82700
N2760       N  0.79281792  0.02176893  0.19245723    -0.79900
C2761       C  0.46087832  0.28847307  0.19378495     0.80100
N2762       N  0.48949296  0.29844347  0.18895684    -0.78200
C2763       C  0.49931583  0.31274542  0.17605450     0.82600
N2764       N  0.48014611  0.31762407  0.16787582    -0.78100
C2765       C  0.45128014  0.30782118  0.17271022     0.82700
N2766       N  0.94405174  0.28892715  0.18875905    -0.79900
C2767       C  0.79208975  0.38100525  0.11399812     0.80100
N2768       N  0.76793055  0.38023071  0.12028891    -0.78200
C2769       C  0.76131158  0.37169205  0.13392044     0.82600
N2770       N  0.77931056  0.36346692  0.14143331    -0.78100
C2771       C  0.80392369  0.36426180  0.13510131     0.82700
N2772       N  0.80989794  0.37321289  0.12149208    -0.79900
Zr2773     Zr  0.68594735  0.36398397  0.16664694     2.17500
O2774       O  0.71237461  0.37528265  0.18802845    -0.51400
O2775       O  0.72848311  0.36868982  0.15259283    -0.74600
O2776       O  0.68993966  0.31750632  0.17556499    -0.81400
O2777       O  0.69857727  0.45129834  0.16516584    -0.83200
O2778       O  0.65443353  0.27349063  0.16488632    -0.78800
O2779       O  0.72003613  0.42064474  0.17183075    -0.90400
O2780       O  0.71441172  0.36770134  0.13061547    -0.76400
O2781       O  0.66700631  0.32975114  0.14793872    -0.85900
O2782       O  0.68464972  0.39743288  0.14783275    -0.85600
O2783       O  0.63627910  0.32001892  0.17470689    -0.72300
O2784       O  0.65227899  0.38255967  0.17432698    -0.84500
Zr2785     Zr  0.58183735  0.33747275  0.14417135     2.26400
Zr2786     Zr  0.61761548  0.28652138  0.15558368     2.06300
Zr2787     Zr  0.65068566  0.41534069  0.15520019     2.10000
Zr2788     Zr  0.66499565  0.36300615  0.12938223     1.78800
O2789       O  0.64287372  0.44808215  0.17159081    -0.93300
O2790       O  0.66271998  0.32343345  0.11359469    -0.41100
O2791       O  0.63122585  0.38166048  0.13629769    -0.77700
O2792       O  0.61525889  0.31870279  0.13630970    -0.96400
O2793       O  0.58299960  0.30382060  0.16291924    -0.89700
O2794       O  0.60105712  0.37213217  0.16274246    -0.92500
C2795       C  0.73308611  0.36918469  0.13958854     1.01200
C2796       C  0.71971992  0.44777004  0.17046524     1.14100
C2797       C  0.67713007  0.28743557  0.17253374     1.04900
O2798       O  0.62632874  0.25384176  0.13947024    -0.94700
O2799       O  0.57029803  0.25014398  0.14546721    -0.90400
O2800       O  0.55084722  0.28164549  0.13727678    -0.83600
C2801       C  0.55079445  0.25438919  0.13895535     1.11600
O2802       O  0.62153489  0.33961078  0.20410819    -0.96700
Zr2803     Zr  0.60211155  0.33851567  0.18138680     1.88900
O2804       O  0.53692920  0.32541469  0.15828904    -0.73300
O2805       O  0.58971920  0.23937270  0.17209269    -0.52600
O2806       O  0.57375518  0.28429545  0.19358746    -0.97300
O2807       O  0.59873193  0.37762377  0.19575677    -0.54500
O2808       O  0.54927034  0.32518669  0.18051213    -0.73800
C2809       C  0.53050301  0.32198089  0.17124420     0.98500
O2810       O  0.55710093  0.33533319  0.12277891    -0.62700
O2811       O  0.67808452  0.46074222  0.13786930    -0.57500
O2812       O  0.57607566  0.38348229  0.13626243    -0.94100
O2813       O  0.61499775  0.42870788  0.14492319    -0.92600
O2814       O  0.69930980  0.41654969  0.11765119    -0.92900
O2815       O  0.64847020  0.36990631  0.10685286    -0.91700
C2816       C  0.59038720  0.41414031  0.13847645     1.17300
H2817       H  0.70466806  0.41577946  0.14530752     0.33300
H2818       H  0.60701778  0.30529387  0.12861430     0.44100
H2819       H  0.58834485  0.38117569  0.16509293     0.37700
H2820       H  0.63770712  0.30742483  0.18248491     0.34100
H2821       H  0.68116769  0.33602132  0.10746076     0.25900
H2822       H  0.59265378  0.22179519  0.16846721     0.31900
H2823       H  0.55449716  0.27257751  0.18884578     0.37800
H2824       H  0.71175278  0.41226905  0.11108473     0.32200
H2825       H  0.67863712  0.47995233  0.14188168     0.31100
H2826       H  0.64382321  0.46674944  0.16597971     0.32800
H2827       H  0.58858121  0.38714989  0.19019669     0.31800
H2828       H  0.62600943  0.35713230  0.10781696     0.35800
H2829       H  0.56358631  0.32382107  0.11652700     0.28500
H2830       H  0.72942266  0.37116327  0.18647550     0.32700
H2831       H  0.60364512  0.33069914  0.21061040     0.35600
H2832       H  0.69937845  0.46558725  0.13784003     0.28200
H2833       H  0.53513854  0.31999623  0.12484278     0.41100
H2834       H  0.61878401  0.25759679  0.13068535     0.31100
H2835       H  0.66669480  0.30806399  0.11926558     0.38700
H2836       H  0.61992425  0.39594606  0.19610924     0.30600
H2837       H  0.60154231  0.24541086  0.18045261     0.30700
H2838       H  0.69827869  0.35744951  0.19480134     0.30900
Zr2839     Zr  0.79582416  0.17323956  0.35097094     2.17500
O2840       O  0.77898488  0.13178529  0.37013656    -0.51400
O2841       O  0.81542997  0.22091438  0.36428660    -0.74600
O2842       O  0.83873160  0.17411712  0.36152889    -0.81400
O2843       O  0.72046987  0.17174841  0.34853984    -0.83200
O2844       O  0.87301206  0.18037841  0.34480327    -0.78800
O2845       O  0.75054808  0.16381008  0.36338499    -0.90400
O2846       O  0.84143294  0.26686241  0.34983116    -0.76400
O2847       O  0.84111081  0.21155648  0.33818249    -0.85900
O2848       O  0.78501888  0.21181307  0.33952991    -0.85600
O2849       O  0.80645475  0.14056015  0.33631122    -0.72300
O2850       O  0.75371887  0.14072043  0.33737163    -0.84500
Zr2851     Zr  0.79894494  0.18642059  0.29740948     2.26400
Zr2852     Zr  0.85111422  0.17976648  0.32286484     2.06300
Zr2853     Zr  0.74366583  0.17993421  0.32559934     2.10000
Zr2854     Zr  0.83031839  0.24977195  0.32662355     1.78800
O2855       O  0.69172622  0.13456481  0.32477587    -0.93300
O2856       O  0.88545583  0.28505237  0.32564209    -0.41100
O2857       O  0.78873148  0.21898210  0.31238510    -0.77700
O2858       O  0.84122669  0.21909561  0.31095591    -0.96400
O2859       O  0.81012904  0.14795915  0.30859741    -0.89700
O2860       O  0.75376415  0.14813144  0.31024676    -0.92500
C2861       C  0.83207015  0.25211141  0.36178817     1.01200
C2862       C  0.72677185  0.16529240  0.36055485     1.14100
C2863       C  0.86444395  0.17806987  0.35744279     1.04900
O2864       O  0.90545529  0.21906693  0.32165308    -0.94700
O2865       O  0.87567246  0.19036904  0.30020151    -0.90400
O2866       O  0.84390430  0.19432967  0.28511537    -0.83600
C2867       C  0.86867078  0.19520287  0.28810919     1.11600
O2868       O  0.74069218  0.06486912  0.33932907    -0.96700
Zr2869     Zr  0.76526930  0.11020376  0.32179269     1.88900
O2870       O  0.77731380  0.13854983  0.28397397    -0.73300
O2871       O  0.85849887  0.13244110  0.32248858    -0.52600
O2872       O  0.78974653  0.07701195  0.32287349    -0.97300
O2873       O  0.71126260  0.07162722  0.31970151    -0.54500
O2874       O  0.76025059  0.09310065  0.29852591    -0.73800
C2875       C  0.76554861  0.10735610  0.28645738     0.98500
O2876       O  0.81355987  0.22605016  0.27763133    -0.62700
O2877       O  0.72860355  0.22142749  0.32724838    -0.57500
O2878       O  0.75984577  0.19384699  0.28732965    -0.94100
O2879       O  0.72710124  0.19180526  0.30405051    -0.92600
O2880       O  0.81153697  0.28743587  0.33034777    -0.92900
O2881       O  0.84649300  0.29340537  0.30844121    -0.91700
C2882       C  0.73664342  0.19534491  0.29152257     1.17300
H2883       H  0.77931013  0.22305749  0.34590673     0.33300
H2884       H  0.85849538  0.23439569  0.30505084     0.44100
H2885       H  0.73717885  0.13709250  0.30426862     0.37700
H2886       H  0.81056051  0.12562127  0.34175776     0.34100
H2887       H  0.89202082  0.27892338  0.33422532     0.25900
H2888       H  0.85876014  0.12840626  0.31265636     0.31900
H2889       H  0.77657295  0.05743986  0.31781909     0.37800
H2890       H  0.78941113  0.27422620  0.32918839     0.32200
H2891       H  0.70614466  0.20867580  0.32823654     0.31100
H2892       H  0.69083130  0.11678596  0.33101122     0.32800
H2893       H  0.71042039  0.05380380  0.31439475     0.31800
H2894       H  0.84770826  0.28320494  0.30001395     0.35800
H2895       H  0.83473496  0.24337678  0.27901093     0.28500
H2896       H  0.78872036  0.14420077  0.37822001     0.32700
H2897       H  0.75303696  0.07315372  0.34744762     0.35600
H2898       H  0.73510517  0.23046297  0.33629949     0.28200
H2899       H  0.81495232  0.21456820  0.26966530     0.41100
H2900       H  0.91520440  0.20536391  0.32187995     0.31100
H2901       H  0.89313437  0.27689938  0.31832350     0.38700
H2902       H  0.70396905  0.08307509  0.31341708     0.30600
H2903       H  0.87971282  0.14090061  0.32510480     0.30700
H2904       H  0.78907121  0.11885394  0.36843686     0.30900
C2905       C  0.79256262  0.97093926  0.52028556     0.80100
N2906       N  0.81759568  0.97490362  0.51341692    -0.78200
C2907       C  0.82793936  0.99336123  0.50132475     0.82600
N2908       N  0.81271272  0.00819079  0.49597169    -0.78100
C2909       C  0.78694196  0.00358791  0.50272013     0.82700
N2910       N  0.77727876  0.98501944  0.51476094    -0.79900
C2911       C  0.63627257  0.11396473  0.45328294     0.80100
N2912       N  0.60864162  0.10382350  0.45933729    -0.78200
C2913       C  0.59953396  0.08463496  0.47125742     0.82600
N2914       N  0.61830380  0.07496642  0.47708757    -0.78100
C2915       C  0.64648449  0.08551107  0.47114399     0.82700
N2916       N  0.65482951  0.10447591  0.45916065    -0.79900
C2917       C  0.57175800  0.20928079  0.52385497     0.80100
N2918       N  0.59985517  0.22572453  0.51767360    -0.78200
C2919       C  0.60627831  0.21498028  0.50620275     0.82600
N2920       N  0.58413741  0.18756209  0.50074724    -0.78100
C2921       C  0.55576571  0.17082270  0.50696204     0.82700
N2922       N  0.54980874  0.18153203  0.51864196    -0.79900
C2923       C  0.85881063  0.35034865  0.45079962     0.80100
N2924       N  0.83131285  0.33152728  0.45742275    -0.78200
C2925       C  0.82352157  0.34149653  0.46880212     0.82600
N2926       N  0.84384866  0.37121668  0.47347081    -0.78100
C2927       C  0.87141046  0.39049646  0.46674379     0.82700
N2928       N  0.87853521  0.38013454  0.45529493    -0.79900
C2929       C  0.96298533  0.38701910  0.54005039     0.80100
N2930       N  0.96579160  0.36453259  0.53291857    -0.78200
C2931       C  0.96377550  0.36476918  0.51911163     0.82600
N2932       N  0.95956794  0.38801816  0.51246363    -0.78100
C2933       C  0.95622044  0.41014962  0.51947238     0.82700
N2934       N  0.95838185  0.41007207  0.53329651    -0.79900
C2935       C  0.46954246  0.18407391  0.43875205     0.80100
N2936       N  0.46239176  0.20267442  0.44648432    -0.78200
C2937       C  0.45815060  0.19666424  0.46028101     0.82600
N2938       N  0.46125033  0.17210731  0.46639107    -0.78100
C2939       C  0.46900157  0.15392783  0.45878108     0.82700
N2940       N  0.47282346  0.15960395  0.44495628    -0.79900
Zr2941     Zr  0.91993972  0.47541912  0.49757957     2.17500
O2942       O  0.89189316  0.44228813  0.51832176    -0.51400
O2943       O  0.89030201  0.42958160  0.48355886    -0.74600
O2944       O  0.87202817  0.47449378  0.50115134    -0.81400
O2945       O  0.98363102  0.45889063  0.50601064    -0.83200
O2946       O  0.87454117  0.02803859  0.48855185    -0.78800
O2947       O  0.93310888  0.43905588  0.51039315    -0.90400
O2948       O  0.91333096  0.44370129  0.46221170    -0.76400
O2949       O  0.91716760  0.00479623  0.47619466    -0.85900
O2950       O  0.95663192  0.47614211  0.48181342    -0.85600
O2951       O  0.92435487  0.03079895  0.50353908    -0.72300
O2952       O  0.95790656  0.00524463  0.51094761    -0.84500
Zr2953     Zr  0.50676854  0.08614457  0.47619807     2.26400
Zr2954     Zr  0.92857619  0.05875622  0.48169429     2.06300
Zr2955     Zr  0.00510366  0.50877461  0.49118151     2.10000
Zr2956     Zr  0.95256912  0.50146184  0.46087998     1.78800
O2957       O  0.53516810  0.51221291  0.51429799    -0.93300
O2958       O  0.93134151  0.01127785  0.44411741    -0.41100
O2959       O  0.00347606  0.03513718  0.47606945    -0.77700
O2960       O  0.96939576  0.06099901  0.46807799    -0.96400
O2961       O  0.97346540  0.08792506  0.49424874    -0.89700
O2962       O  0.51126153  0.06436973  0.49797997    -0.92500
C2963       C  0.89295990  0.42330922  0.47116262     1.01200
C2964       C  0.95762952  0.43801783  0.51166626     1.14100
C2965       C  0.85807656  0.00077765  0.49572786     1.04900
O2966       O  0.90217213  0.05445740  0.46070186    -0.94700
O2967       O  0.95527611  0.11258988  0.46966897    -0.90400
O2968       O  0.49265066  0.12439328  0.46601048    -0.83600
C2969       C  0.98307737  0.13380651  0.46636657     1.11600
O2970       O  0.93668654  0.03504309  0.53637379    -0.96700
Zr2971     Zr  0.96972488  0.05975486  0.51570320     1.88900
O2972       O  0.53622721  0.13227145  0.49001306    -0.73300
O2973       O  0.91493375  0.09582757  0.49220712    -0.52600
O2974       O  0.94810900  0.09299696  0.52281701    -0.97300
O2975       O  0.50601135  0.06619114  0.53069643    -0.54500
O2976       O  0.51145648  0.11924188  0.51097054    -0.73800
C2977       C  0.53285519  0.13896093  0.50225078     0.98500
O2978       O  0.53492536  0.11277625  0.45449366    -0.62700
O2979       O  0.01307745  0.47262088  0.47678245    -0.57500
O2980       O  0.55555187  0.08902958  0.47270608    -0.94100
O2981       O  0.55548563  0.04636879  0.48484576    -0.92600
O2982       O  0.97608639  0.47420040  0.44956561    -0.92900
O2983       O  0.99075370  0.03341040  0.44284578    -0.91700
C2984       C  0.56840437  0.07274623  0.47684641     1.17300
H2985       H  0.95298604  0.45416482  0.48067713     0.33300
H2986       H  0.97211292  0.07298565  0.45935731     0.44100
H2987       H  0.53104938  0.07778717  0.50154874     0.37700
H2988       H  0.90829962  0.02973423  0.50933097     0.34100
H2989       H  0.91362715  0.48366158  0.43835575     0.25900
H2990       H  0.89872158  0.09533856  0.48660153     0.31900
H2991       H  0.45115606  0.10769003  0.51294059     0.37800
H2992       H  0.99821456  0.48925193  0.45011614     0.32200
H2993       H  0.50854807  0.46406063  0.47688798     0.31100
H2994       H  0.53714961  0.49227249  0.51482256     0.32800
H2995       H  0.52633507  0.08438061  0.52740266     0.31800
H2996       H  0.00522031  0.05610898  0.44526695     0.35800
H2997       H  0.51932530  0.10782372  0.44765286     0.28500
H2998       H  0.87069755  0.42792897  0.51574910     0.32700
H2999       H  0.94504547  0.05206550  0.54314537     0.35600
H3000       H  0.02138441  0.46196717  0.48291882     0.28200
H3001       H  0.54452134  0.13677433  0.45549183     0.41100
H3002       H  0.89269351  0.06818512  0.46190243     0.31100
H3003       H  0.89488175  0.48589768  0.45067629     0.38700
H3004       H  0.50763164  0.04609586  0.53041262     0.30600
H3005       H  0.90453311  0.08438391  0.50112135     0.30700
H3006       H  0.89122849  0.45826462  0.52433456     0.30900
C3007       C  0.78428204  0.32615061  0.76853818     0.80100
N3008       N  0.79719076  0.35716124  0.77287052    -0.78200
C3009       C  0.80521859  0.36311339  0.78598180     0.82600
N3010       N  0.80020225  0.33761144  0.79482415    -0.78100
C3011       C  0.78736293  0.30638283  0.79076855     0.82700
N3012       N  0.77931681  0.30050786  0.77752519    -0.79900
C3013       C  0.88642153  0.09743750  0.85500231     0.80100
N3014       N  0.87742141  0.07103647  0.84732378    -0.78200
C3015       C  0.85919963  0.06603524  0.83667937     0.82600
N3016       N  0.84993784  0.08793115  0.83380736    -0.78100
C3017       C  0.85885159  0.11458131  0.84118411     0.82700
N3018       N  0.87701476  0.11932911  0.85185637    -0.79900
C3019       C  0.67801157  0.05561245  0.78121780     0.80100
N3020       N  0.69926990  0.08355281  0.78665631    -0.78200
C3021       C  0.69730194  0.08739250  0.80025689     0.82600
N3022       N  0.67473817  0.06273216  0.80848162    -0.78100
C3023       C  0.65361497  0.03458877  0.80310732     0.82700
N3024       N  0.65540791  0.03134733  0.78948424    -0.79900
C3025       C  0.92576940  0.35501504  0.87191900     0.80100
N3026       N  0.95462562  0.37306076  0.86630789    -0.78200
C3027       C  0.96260223  0.36508103  0.85435855     0.82600
N3028       N  0.94136569  0.33890266  0.84795564    -0.78100
C3029       C  0.91265003  0.32082262  0.85345265     0.82700
N3030       N  0.90487234  0.32905351  0.86531815    -0.79900
C3031       C  0.64970725  0.18007285  0.86543848     0.80100
N3032       N  0.63459054  0.19211941  0.85823788    -0.78200
C3033       C  0.64256087  0.20364353  0.84495140     0.82600
N3034       N  0.66582931  0.20201334  0.83851185    -0.78100
C3035       C  0.68095072  0.18930086  0.84566413     0.82700
N3036       N  0.67281147  0.17874496  0.85909126    -0.79900
C3037       C  0.97979277  0.27098302  0.78576814     0.80100
N3038       N  0.99989883  0.26894525  0.79399392    -0.78200
C3039       C  0.99221765  0.25631879  0.80713954     0.82600
N3040       N  0.96334448  0.24522545  0.81227985    -0.78100
C3041       C  0.94289660  0.24775988  0.80417824     0.82700
N3042       N  0.95131023  0.26046141  0.79097345    -0.79900
Zr3043     Zr  0.75712904  0.19909053  0.81251784     2.17500
O3044       O  0.72106767  0.19814952  0.79615664    -0.51400
O3045       O  0.71559635  0.19592651  0.82707404    -0.74600
O3046       O  0.72606495  0.14442229  0.80365455    -0.81400
O3047       O  0.80368350  0.29217980  0.81065262    -0.83200
O3048       O  0.73875115  0.10882408  0.81405025    -0.78800
O3049       O  0.77050166  0.25009524  0.79839664    -0.90400
O3050       O  0.72498594  0.18685014  0.84900597    -0.76400
O3051       O  0.75520700  0.16187650  0.83069448    -0.85900
O3052       O  0.77622461  0.23035521  0.83222703    -0.85600
O3053       O  0.78841510  0.17726597  0.80453364    -0.72300
O3054       O  0.80860551  0.24027526  0.80636716    -0.84500
Zr3055     Zr  0.85828748  0.21495339  0.83612494     2.26400
Zr3056     Zr  0.78774965  0.14189455  0.82329638     2.06300
Zr3057     Zr  0.82747066  0.27125013  0.82607317     2.10000
Zr3058     Zr  0.77499272  0.19320241  0.85008308     1.78800
O3059       O  0.86634770  0.32219473  0.81398655    -0.93300
O3060       O  0.74218888  0.13933737  0.86195280    -0.41100
O3061       O  0.82650440  0.23524738  0.84445728    -0.77700
O3062       O  0.80720916  0.17245863  0.84306728    -0.96400
O3063       O  0.83876801  0.18306641  0.81679336    -0.89700
O3064       O  0.85972500  0.25166257  0.81806619    -0.92500
C3065       C  0.70863519  0.19044737  0.84003228     1.01200
C3066       C  0.78645382  0.28097026  0.80054696     1.14100
C3067       C  0.72209825  0.11541763  0.80641479     1.04900
O3068       O  0.75959681  0.09433842  0.83956420    -0.94700
O3069       O  0.82246122  0.12452135  0.83147549    -0.90400
O3070       O  0.86251460  0.16654475  0.84119926    -0.83600
C3071       C  0.84725677  0.13671656  0.83783538     1.11600
O3072       O  0.82355892  0.21699081  0.77547087    -0.96700
Zr3073     Zr  0.84009461  0.21944692  0.79882043     1.88900
O3074       O  0.90436987  0.23034623  0.82209818    -0.73300
O3075       O  0.79286551  0.10884669  0.80613639    -0.52600
O3076       O  0.84477803  0.17940715  0.78564387    -0.97300
O3077       O  0.86554731  0.27235635  0.78551493    -0.54500
O3078       O  0.89298842  0.23447639  0.79997197    -0.73800
C3079       C  0.91144793  0.23657541  0.80917192     0.98500
O3080       O  0.87884249  0.21064008  0.85799669    -0.62700
O3081       O  0.81070712  0.30046391  0.84053588    -0.57500
O3082       O  0.89125352  0.26876090  0.84459852    -0.94100
O3083       O  0.86873891  0.29972667  0.84108581    -0.92600
O3084       O  0.77872594  0.23453131  0.86525386    -0.92900
O3085       O  0.78676016  0.18547363  0.87353380    -0.91700
C3086       C  0.88942890  0.29473363  0.84591004     1.17300
H3087       H  0.76522572  0.24123987  0.83478109     0.33300
H3088       H  0.80765948  0.15833862  0.85048538     0.44100
H3089       H  0.88003885  0.26996561  0.81608241     0.37700
H3090       H  0.78036213  0.16496348  0.79653536     0.34100
H3091       H  0.72234403  0.13065634  0.85769710     0.25900
H3092       H  0.77732520  0.08578961  0.80899370     0.31900
H3093       H  0.85102155  0.16750891  0.79226135     0.37800
H3094       H  0.76148706  0.23787297  0.86312228     0.32200
H3095       H  0.81548389  0.29633503  0.84994818     0.31100
H3096       H  0.86242385  0.33947915  0.81714473     0.32800
H3097       H  0.88623538  0.28425012  0.78899420     0.31800
H3098       H  0.80913959  0.19563957  0.87322066     0.35800
H3099       H  0.90118515  0.22453921  0.85660532     0.28500
H3100       H  0.70085650  0.18008737  0.79966506     0.32700
H3101       H  0.80197795  0.21096031  0.77654739     0.35600
H3102       H  0.82525064  0.32411051  0.83817463     0.28200
H3103       H  0.87289427  0.22233059  0.86440535     0.41100
H3104       H  0.75578927  0.07514668  0.83439249     0.31100
H3105       H  0.75018448  0.12527087  0.85887285     0.38700
H3106       H  0.85558190  0.28439573  0.78879807     0.30600
H3107       H  0.78541879  0.11407260  0.79762751     0.30700
H3108       H  0.72550124  0.19039702  0.78765467     0.30900
Zr3109     Zr  0.98653114  0.02377766  0.96324417     2.17500
O3110       O  0.51247138  0.01545617  0.94877982    -0.51400
O3111       O  0.97378793  0.05365284  0.94614007    -0.74600
O3112       O  0.94102164  0.48969026  0.95116782    -0.81400
O3113       O  0.55753034  0.11211024  0.97059061    -0.83200
O3114       O  0.90165896  0.45506859  0.96606011    -0.78800
O3115       O  0.53408799  0.07304076  0.95527446    -0.90400
O3116       O  0.95128673  0.07758153  0.95729803    -0.76400
O3117       O  0.94089810  0.02015687  0.97153055    -0.85900
O3118       O  0.00142915  0.07465691  0.97307888    -0.85600
O3119       O  0.96416237  0.97605850  0.97906995    -0.72300
O3120       O  0.52062494  0.04407416  0.98231781    -0.84500
Zr3121     Zr  0.96551301  0.02717235  0.01542087     2.26400
Zr3122     Zr  0.91079025  0.48198039  0.98758770     2.06300
Zr3123     Zr  0.52488815  0.09235012  0.99158005     2.10000
Zr3124     Zr  0.95581918  0.07060019  0.98170994     1.78800
O3125       O  0.57593705  0.10793576  0.99831453    -0.93300
O3126       O  0.88395052  0.55612430  0.97585787    -0.41100
O3127       O  0.98851901  0.07480000  0.99964659    -0.77700
O3128       O  0.91817208  0.53165286  0.99690939    -0.96400
O3129       O  0.94534311  0.49213191  0.00537844    -0.89700
O3130       O  0.50884064  0.04761682  0.00858782    -0.92500
C3131       C  0.95986317  0.07010151  0.94631630     1.01200
C3132       C  0.55611422  0.10024229  0.95887934     1.14100
C3133       C  0.91594748  0.46290750  0.95427634     1.04900
O3134       O  0.86105820  0.47295204  0.98171072    -0.94700
O3135       O  0.87995810  0.46176338  0.00903717    -0.90400
O3136       O  0.90480429  0.50025699  0.02439522    -0.83600
C3137       C  0.88229897  0.47324582  0.02089237     1.11600
O3138       O  0.53169232  0.98076279  0.98551523    -0.96700
Zr3139     Zr  0.50384050  0.99939217  0.99945326     1.88900
O3140       O  0.97813197  0.99755333  0.03255323    -0.73300
O3141       O  0.89314701  0.42386273  0.99312188    -0.52600
O3142       O  0.45077975  0.42368294  0.00049002    -0.97300
O3143       O  0.55713220  0.02240124  0.00455140    -0.54500
O3144       O  0.50273198  0.98951973  0.02411005    -0.73800
C3145       C  0.49000904  0.99396010  0.03457107     0.98500
O3146       O  0.94879520  0.05221239  0.03218859    -0.62700
O3147       O  0.05714652  0.13826021  0.98754249    -0.57500
O3148       O  0.00317136  0.07259803  0.02721751    -0.94100
O3149       O  0.53163443  0.11848445  0.01308464    -0.92600
O3150       O  0.98765312  0.12988458  0.97655160    -0.92900
O3151       O  0.94439586  0.10305969  0.99679716    -0.91700
C3152       C  0.02968129  0.09765863  0.02453125     1.17300
H3153       H  0.01161664  0.09291435  0.96627152     0.33300
H3154       H  0.89926642  0.52827313  0.00088114     0.44100
H3155       H  0.52241949  0.05417000  0.01605414     0.37700
H3156       H  0.95669356  0.47179699  0.97480083     0.34100
H3157       H  0.88364477  0.57409871  0.97024813     0.25900
H3158       H  0.87390835  0.41180854  0.98839945     0.31900
H3159       H  0.46260210  0.41631811  0.00607425     0.37800
H3160       H  0.99417657  0.13275844  0.96673712     0.32200
H3161       H  0.55936119  0.16238137  0.98718942     0.31100
H3162       H  0.58273098  0.09655062  0.99214718     0.32800
H3163       H  0.55731217  0.00686584  0.01173054     0.31800
H3164       H  0.94547091  0.09479318  0.00617110     0.35800
H3165       H  0.93072373  0.05175992  0.02837616     0.28500
H3166       H  0.50329563  0.01398543  0.93980236     0.32700
H3167       H  0.54181067  0.99816099  0.97797710     0.35600
H3168       H  0.05150130  0.14216642  0.97828827     0.28200
H3169       H  0.94096065  0.03646760  0.04037910     0.41100
H3170       H  0.84788743  0.44867643  0.98215130     0.31100
H3171       H  0.87829663  0.53836497  0.96952745     0.38700
H3172       H  0.56250251  0.04257430  0.00931510     0.30600
H3173       H  0.90769077  0.41950444  0.98811981     0.30700
H3174       H  0.50663323  0.99250047  0.95177853     0.30900
Zr3175     Zr  0.63679117  0.36884587  0.67849505     2.17500
O3176       O  0.61634205  0.32389622  0.69634436    -0.51400
O3177       O  0.65841634  0.41408825  0.69345658    -0.74600
O3178       O  0.67632250  0.36176924  0.68838000    -0.81400
O3179       O  0.56092325  0.36659464  0.67681414    -0.83200
O3180       O  0.71103838  0.36868124  0.67171251    -0.78800
O3181       O  0.59228019  0.35987296  0.69129558    -0.90400
O3182       O  0.67741110  0.46170299  0.68018405    -0.76400
O3183       O  0.68257414  0.40927749  0.66670046    -0.85900
O3184       O  0.62576589  0.40858151  0.66842071    -0.85600
O3185       O  0.64821209  0.33908621  0.66246002    -0.72300
O3186       O  0.59514187  0.33888235  0.66420942    -0.84500
Zr3187     Zr  0.64189496  0.39171640  0.62556237     2.26400
Zr3188     Zr  0.69362039  0.38048474  0.65013646     2.06300
Zr3189     Zr  0.58485785  0.37931613  0.65383515     2.10000
Zr3190     Zr  0.67143423  0.44867834  0.65640123     1.78800
O3191       O  0.53186681  0.33602023  0.65356095    -0.93300
O3192       O  0.72634500  0.48192624  0.65774803    -0.41100
O3193       O  0.63017135  0.42113712  0.64154533    -0.77700
O3194       O  0.68379575  0.42135356  0.63968745    -0.96400
O3195       O  0.65279328  0.35174137  0.63544066    -0.89700
O3196       O  0.59643056  0.35072480  0.63749760    -0.92500
C3197       C  0.67136816  0.44563615  0.69187781     1.01200
C3198       C  0.56796599  0.36042340  0.68870971     1.14100
C3199       C  0.70085894  0.36295281  0.68427776     1.04900
O3200       O  0.74579732  0.42535420  0.65097567    -0.94700
O3201       O  0.71605430  0.38992524  0.62692081    -0.90400
O3202       O  0.68612242  0.39992868  0.61271013    -0.83600
C3203       C  0.70946496  0.39725497  0.61511092     1.11600
O3204       O  0.58746007  0.26752977  0.66589919    -0.96700
Zr3205     Zr  0.60743745  0.31117943  0.64751595     1.88900
O3206       O  0.62227231  0.34724932  0.61049720    -0.73300
O3207       O  0.70724398  0.33849649  0.64644278    -0.52600
O3208       O  0.62876014  0.27561622  0.64418558    -0.97300
O3209       O  0.55305228  0.27380038  0.64593541    -0.54500
O3210       O  0.60100149  0.29873926  0.62352517    -0.73800
C3211       C  0.60857228  0.31574240  0.61196503     0.98500
O3212       O  0.65980546  0.43757440  0.60822666    -0.62700
O3213       O  0.57288255  0.42277436  0.65684919    -0.57500
O3214       O  0.60023382  0.39388235  0.61527570    -0.94100
O3215       O  0.56510653  0.38574894  0.63204299    -0.92600
O3216       O  0.65368539  0.48749112  0.65949092    -0.92900
O3217       O  0.69235959  0.49458952  0.63904572    -0.91700
C3218       C  0.57467190  0.39026392  0.61942697     1.17300
H3219       H  0.61976767  0.41863500  0.67527568     0.33300
H3220       H  0.70136735  0.43760944  0.63415964     0.44100
H3221       H  0.58002729  0.33998372  0.63140155     0.37700
H3222       H  0.65185645  0.32301587  0.66726931     0.34100
H3223       H  0.72985035  0.50295733  0.66118330     0.25900
H3224       H  0.72873279  0.34855866  0.64888399     0.31900
H3225       H  0.64390674  0.28666997  0.63641538     0.37800
H3226       H  0.63898649  0.48310923  0.65226571     0.32200
H3227       H  0.58480435  0.43973598  0.64936861     0.31100
H3228       H  0.52011964  0.34665077  0.65619200     0.32800
H3229       H  0.54800783  0.27935970  0.63681807     0.31800
H3230       H  0.67909762  0.48599246  0.63122201     0.35800
H3231       H  0.64898443  0.44938659  0.61059629     0.28500
H3232       H  0.62795793  0.33343978  0.70454731     0.32700
H3233       H  0.58016137  0.24674284  0.66130486     0.35600
H3234       H  0.55152326  0.41321740  0.65426332     0.28200
H3235       H  0.68108703  0.45292107  0.61037752     0.41100
H3236       H  0.75798695  0.41432459  0.65180737     0.31100
H3237       H  0.73134827  0.47126314  0.66546170     0.38700
H3238       H  0.54338144  0.28151732  0.65252314     0.30600
H3239       H  0.69578143  0.32092884  0.65378644     0.30700
H3240       H  0.62283970  0.30840932  0.69339593     0.30900
C3241       C  0.02102659  0.29821524  0.75042172    -0.22600
C3242       C  0.00481050  0.31120819  0.74385826     0.09400
C3243       C  0.97954108  0.30962560  0.75068156     0.09800
C3244       C  0.97183722  0.29627640  0.76431720    -0.17500
C3245       C  0.98870638  0.28412377  0.77121136    -0.27900
C3246       C  0.01333795  0.28446178  0.76393239     0.18100
C3247       C  0.01602449  0.32726547  0.72996850     0.12100
C3248       C  0.96088658  0.32205320  0.74356043    -0.12300
H3249       H  0.95273156  0.29572404  0.76963879     0.12400
C3250       C  0.03144707  0.26983367  0.76994731    -0.23100
H3251       H  0.53431908  0.29782831  0.73940896     0.08000
C3252       C  0.54506264  0.36546029  0.72449375     0.04400
C3253       C  0.55977573  0.37444381  0.71149090    -0.20300
C3254       C  0.54743539  0.35405436  0.70060879    -0.12600
C3255       C  0.51845560  0.32535933  0.70242217     0.13100
C3256       C  0.00581316  0.30793122  0.71867019    -0.23100
C3257       C  0.56012771  0.38668021  0.73620949    -0.06100
H3258       H  0.58204156  0.39637400  0.71002199     0.14600
C3259       C  0.01012725  0.29653127  0.69435043    -0.16300
H3260       H  0.98707170  0.28278281  0.72014646     0.08900
H3261       H  0.04500159  0.28443513  0.77837040     0.06800
H3262       H  0.04778716  0.26994170  0.76224000     0.08000
H3263       H  0.01597372  0.24380309  0.77373981     0.07000
H3264       H  0.95125447  0.30812156  0.73434701     0.01900
H3265       H  0.97536822  0.34863753  0.74035478     0.02400
H3266       H  0.94178388  0.31895637  0.75034317     0.05900
H3267       H  0.58180455  0.40917524  0.73274837     0.04900
H3268       H  0.56514770  0.37266710  0.74420141    -0.00900
H3269       H  0.54491804  0.39458310  0.74078178     0.00600
H3270       H  0.01092360  0.27392631  0.69747275     0.04200
H3271       H  0.51760200  0.30965817  0.68158360     0.06200
H3272       H  0.98630652  0.28948600  0.69232854     0.07000
C3273       C  0.57232017  0.27696863  0.81515047    -0.22600
C3274       C  0.56314839  0.24575444  0.82142628     0.09400
C3275       C  0.02709710  0.21085302  0.82483360     0.09800
C3276       C  0.00553425  0.21921630  0.82039350    -0.17500
C3277       C  0.01452648  0.25100181  0.81472566    -0.27900
C3278       C  0.55099035  0.28485079  0.80995744     0.18100
C3279       C  0.58656821  0.23824939  0.82643309     0.12100
C3280       C  0.01655211  0.17651968  0.83092049    -0.12300
H3281       H  0.98170754  0.20044504  0.82075671     0.12400
C3282       C  0.56223581  0.31929101  0.80371547    -0.23100
H3283       H  0.59634258  0.29509407  0.81416556     0.08000
C3284       C  0.59719074  0.22105454  0.81872222     0.04400
C3285       C  0.61683265  0.21139938  0.82465173    -0.20300
C3286       C  0.62607459  0.21870343  0.83810811    -0.12600
C3287       C  0.61720290  0.23834143  0.84534217     0.13100
C3288       C  0.59755129  0.24769635  0.83939806    -0.23100
C3289       C  0.58755089  0.21273164  0.80430744    -0.06100
H3290       H  0.62396200  0.19699351  0.81897896     0.14600
C3291       C  0.62849155  0.25003814  0.85930323    -0.16300
H3292       H  0.58992855  0.26169033  0.84507354     0.08900
H3293       H  0.55889456  0.31902927  0.79254267     0.06800
H3294       H  0.58688976  0.33564089  0.80507170     0.08000
H3295       H  0.04409397  0.32021759  0.81588578     0.07000
H3296       H  0.52887323  0.19345899  0.84169493     0.01900
H3297       H  0.02601519  0.16441434  0.82465623     0.02400
H3298       H  0.99139739  0.16100661  0.83135848     0.05900
H3299       H  0.59801478  0.19944486  0.79965984     0.04900
H3300       H  0.59464300  0.23577039  0.79783804    -0.00900
H3301       H  0.56250541  0.19685080  0.80426883     0.00600
H3302       H  0.62237762  0.26843899  0.86247792     0.04200
H3303       H  0.65362810  0.26193520  0.85910651     0.06200
H3304       H  0.61811180  0.22916384  0.86721448     0.07000
C3305       C  0.65350355  0.16826905  0.90415554    -0.22600
C3306       C  0.62267357  0.15318844  0.90820100     0.09400
C3307       C  0.60093060  0.14631369  0.89823857     0.09800
C3308       C  0.61054101  0.15476863  0.88439046    -0.17500
C3309       C  0.64139333  0.16990034  0.88020124    -0.27900
C3310       C  0.66325275  0.17692208  0.89024998     0.18100
C3311       C  0.61296768  0.14343514  0.92284112     0.12100
C3312       C  0.56750494  0.12982442  0.90222123    -0.12300
H3313       H  0.59378167  0.14951480  0.87675868     0.12400
C3314       C  0.69684470  0.19467559  0.88654096    -0.23100
H3315       H  0.66994382  0.17338174  0.91192975     0.08000
C3316       C  0.60726131  0.11264510  0.92860226     0.04400
C3317       C  0.59148119  0.10074273  0.94135689    -0.20300
C3318       C  0.58077095  0.11863566  0.94831702    -0.12600
C3319       C  0.58856908  0.15060566  0.94305574     0.13100
C3320       C  0.60492479  0.16280968  0.93037170    -0.23100
C3321       C  0.61594345  0.09139523  0.92087014    -0.06100
H3322       H  0.58541803  0.07620585  0.94544314     0.14600
C3323       C  0.08809951  0.15641313  0.94965599    -0.16300
H3324       H  0.60947575  0.18646976  0.92582608     0.08900
H3325       H  0.70239841  0.17934989  0.88016063     0.06800
H3326       H  0.71048809  0.19982972  0.89578993     0.08000
H3327       H  0.70375371  0.21862734  0.88084335     0.07000
H3328       H  0.56323224  0.14540587  0.90904473     0.01900
H3329       H  0.55986600  0.10543549  0.90767296     0.02400
H3330       H  0.55358647  0.12587955  0.89312686     0.05900
H3331       H  0.60944312  0.06782601  0.92681123     0.04900
H3332       H  0.64089253  0.10470191  0.91870440    -0.00900
H3333       H  0.60432016  0.08545571  0.91103896     0.00600
H3334       H  0.09703633  0.18108222  0.94421922     0.04200
H3335       H  0.09843420  0.15995323  0.95978561     0.06200
H3336       H  0.06309619  0.14501909  0.95118241     0.07000
C3337       C  0.88194762  0.36978891  0.90033196    -0.22600
C3338       C  0.90536542  0.38771051  0.90902499     0.09400
C3339       C  0.93484017  0.39350532  0.90589175     0.09800
C3340       C  0.94040055  0.38172668  0.89394477    -0.17500
C3341       C  0.91729689  0.36447023  0.88489647    -0.27900
C3342       C  0.88742321  0.35810559  0.88826311     0.18100
C3343       C  0.89972379  0.40316389  0.92067892     0.12100
C3344       C  0.96069404  0.41303910  0.91496509    -0.12300
H3345       H  0.96314987  0.38643499  0.89159757     0.12400
C3346       C  0.86135684  0.34043232  0.87904843    -0.23100
H3347       H  0.85947608  0.36579593  0.90282943     0.08000
C3348       C  0.90193693  0.43424591  0.91868239     0.04400
C3349       C  0.90410429  0.45205027  0.93009139    -0.20300
C3350       C  0.90413407  0.43945305  0.94341906    -0.12600
C3351       C  0.89899671  0.40699182  0.94547372     0.13100
C3352       C  0.89679666  0.38914894  0.93401916    -0.23100
C3353       C  0.90396566  0.44948002  0.90447725    -0.06100
H3354       H  0.90780534  0.47684324  0.92855447     0.14600
C3355       C  0.89819345  0.39208192  0.95958588    -0.16300
H3356       H  0.89487957  0.36512898  0.93541990     0.08900
H3357       H  0.86727347  0.35336523  0.86866938     0.06800
H3358       H  0.84039121  0.33961197  0.88300253     0.08000
H3359       H  0.85592629  0.31454636  0.87839042     0.07000
H3360       H  0.95564052  0.40037725  0.92537461     0.01900
H3361       H  0.96388903  0.43808088  0.91571373     0.02400
H3362       H  0.46473182  0.39382678  0.91336054     0.05900
H3363       H  0.90593714  0.47408746  0.90475089     0.04900
H3364       H  0.88322881  0.43331961  0.89902978    -0.00900
H3365       H  0.92420009  0.45253531  0.89862856     0.00600
H3366       H  0.87905174  0.39024936  0.96591880     0.04200
H3367       H  0.91992493  0.40760280  0.96449951     0.06200
H3368       H  0.89487314  0.36689342  0.95924902     0.07000
C3369       C  0.54577779  0.43505424  0.84626240    -0.22600
C3370       C  0.54778438  0.43956362  0.83191929     0.09400
C3371       C  0.52202887  0.42081901  0.82436176     0.09800
C3372       C  0.99278747  0.39365492  0.83289362    -0.17500
C3373       C  0.99239739  0.38758096  0.84714558    -0.27900
C3374       C  0.01986403  0.40417057  0.85400147     0.18100
C3375       C  0.57663349  0.46497304  0.82490206     0.12100
C3376       C  0.52313052  0.42541830  0.80893714    -0.12300
H3377       H  0.97189972  0.38084198  0.82756125     0.12400
C3378       C  0.02146674  0.39682807  0.86904656    -0.23100
H3379       H  0.56586963  0.44945769  0.85192646     0.08000
C3380       C  0.58569223  0.49873118  0.82466885     0.04400
C3381       C  0.61187147  0.52171973  0.81684926    -0.20300
C3382       C  0.62843111  0.51146925  0.80891466    -0.12600
C3383       C  0.61935207  0.47757210  0.80922790     0.13100
C3384       C  0.59380091  0.45482156  0.81742167    -0.23100
C3385       C  0.06369654  0.50416068  0.83659842    -0.06100
H3386       H  0.61882165  0.54766314  0.81652407     0.14600
C3387       C  0.63657549  0.46516190  0.80109931    -0.16300
H3388       H  0.58652727  0.42879425  0.81766967     0.08900
H3389       H  0.04516453  0.41027985  0.87240115     0.06800
H3390       H  0.01263653  0.37002966  0.87115512     0.08000
H3391       H  0.00799880  0.40456022  0.87524908     0.07000
H3392       H  0.53939505  0.41898969  0.80434233     0.01900
H3393       H  0.53037907  0.45146631  0.80580792     0.02400
H3394       H  0.50060982  0.40950636  0.80470864     0.05900
H3395       H  0.07265211  0.53114831  0.83637736     0.04900
H3396       H  0.06456395  0.49547219  0.84726026    -0.00900
H3397       H  0.03970291  0.49210243  0.83364009     0.00600
H3398       H  0.62471497  0.93618085  0.80088198     0.04200
H3399       H  0.65874724  0.97547243  0.80141088     0.06200
H3400       H  0.63479746  0.46916039  0.78995130     0.07000
C3401       C  0.70163973  0.51524147  0.71634636    -0.22600
C3402       C  0.68441962  0.49818086  0.72834582     0.09400
C3403       C  0.66496243  0.46378342  0.72870565     0.09800
C3404       C  0.66206606  0.44731189  0.71678601    -0.17500
C3405       C  0.67820511  0.46438986  0.70443562    -0.27900
C3406       C  0.69905864  0.49887448  0.70438126     0.18100
C3407       C  0.68643460  0.51676142  0.74040720     0.12100
C3408       C  0.64722958  0.44447224  0.74168978    -0.12300
H3409       H  0.64634092  0.42099782  0.71707873     0.12400
C3410       C  0.71911197  0.51881207  0.69197184    -0.23100
H3411       H  0.70336874  0.05048509  0.71612933     0.08000
C3412       C  0.71069455  0.52695507  0.74924607     0.04400
C3413       C  0.70982369  0.54140867  0.76133485    -0.20300
C3414       C  0.68076482  0.04956292  0.76676267    -0.12600
C3415       C  0.65560951  0.03767773  0.75831854     0.13100
C3416       C  0.65708625  0.02515156  0.74582046    -0.23100
C3417       C  0.73664246  0.52109445  0.74623796    -0.06100
H3418       H  0.72765470  0.54785881  0.76850641     0.14600
C3419       C  0.62681664  0.03764775  0.76219158    -0.16300
H3420       H  0.63746057  0.01496893  0.73954136     0.08900
H3421       H  0.73561363  0.54450541  0.69431327     0.06800
H3422       H  0.68374323  0.02327609  0.68436403     0.08000
H3423       H  0.73232017  0.50743629  0.68837060     0.07000
H3424       H  0.63128646  0.45278587  0.74489901     0.01900
H3425       H  0.66309001  0.44827191  0.74997550     0.02400
H3426       H  0.63376026  0.41762420  0.74030560     0.05900
H3427       H  0.75339471  0.52991914  0.75436751     0.04900
H3428       H  0.74860703  0.53440880  0.73636067    -0.00900
H3429       H  0.72784256  0.49430840  0.74556200     0.00600
H3430       H  0.62202669  0.05133190  0.75395044     0.04200
H3431       H  0.62821374  0.04970157  0.77182156     0.06200
H3432       H  0.60757573  0.01188016  0.76338237     0.07000
C3433       C  0.93354752  0.12683225  0.88677772    -0.22600
C3434       C  0.92837212  0.09662034  0.89275776     0.09400
C3435       C  0.91071956  0.06747061  0.88613823     0.09800
C3436       C  0.89833005  0.06903696  0.87370246    -0.17500
C3437       C  0.90256213  0.09901616  0.86771796    -0.27900
C3438       C  0.92081290  0.12850360  0.87430557     0.18100
C3439       C  0.93931917  0.09507507  0.90650106     0.12100
C3440       C  0.90434782  0.03448365  0.89236032    -0.12300
H3441       H  0.88432875  0.04625261  0.86888526     0.12400
C3442       C  0.92730890  0.16174362  0.86833330    -0.23100
H3443       H  0.94709040  0.14903551  0.89204744     0.08000
C3444       C  0.96610418  0.09383476  0.90826417     0.04400
C3445       C  0.97261849  0.08650098  0.92142787    -0.20300
C3446       C  0.95306700  0.08072548  0.93290077    -0.12600
C3447       C  0.92680834  0.08355746  0.93108727     0.13100
C3448       C  0.92036795  0.09066147  0.91788660    -0.23100
C3449       C  0.98756220  0.09993680  0.89623075    -0.06100
H3450       H  0.99296124  0.08493002  0.92272964     0.14600
C3451       C  0.90455658  0.07767753  0.94276365    -0.16300
H3452       H  0.89975014  0.09154183  0.91631697     0.08900
H3453       H  0.94847491  0.69127770  0.86962035     0.06800
H3454       H  0.90612854  0.16299769  0.86834579     0.08000
H3455       H  0.93724655  0.16617469  0.85770674     0.07000
H3456       H  0.89250343  0.02936661  0.90259617     0.01900
H3457       H  0.92604184  0.03465873  0.89347035     0.02400
H3458       H  0.88982010  0.01405259  0.88589665     0.05900
H3459       H  0.00637970  0.61147400  0.90043835     0.04900
H3460       H  0.99508686  0.63731964  0.89111426    -0.00900
H3461       H  0.97583582  0.08164878  0.88851822     0.00600
H3462       H  0.89595625  0.05274190  0.94786702     0.04200
H3463       H  0.91572324  0.09678108  0.95022746     0.06200
H3464       H  0.88463752  0.07912804  0.93919866     0.07000
C3465       C  0.81791657  0.99863228  0.81176182    -0.22600
C3466       C  0.85389099  0.49221674  0.80683874     0.09400
C3467       C  0.88031866  0.50680049  0.81434297     0.09800
C3468       C  0.85764021  0.01325356  0.83300345    -0.17500
C3469       C  0.84811922  0.03580255  0.82898327    -0.27900
C3470       C  0.82793510  0.02824663  0.81804607     0.18100
C3471       C  0.84201535  0.45916218  0.80161477     0.12100
C3472       C  0.89947327  0.49082310  0.81605711    -0.12300
H3473       H  0.90852556  0.54699104  0.82650471     0.12400
C3474       C  0.81632851  0.05048997  0.81279805    -0.23100
H3475       H  0.80246020  0.99248229  0.80347870     0.08000
C3476       C  0.82134853  0.43053531  0.80969540     0.04400
C3477       C  0.81002303  0.39967809  0.80430332    -0.20300
C3478       C  0.81836128  0.39672000  0.79089724    -0.12600
C3479       C  0.83913310  0.42560208  0.78278308     0.13100
C3480       C  0.85076400  0.45648502  0.78830568    -0.23100
C3481       C  0.81100650  0.43261026  0.82396244    -0.06100
H3482       H  0.79407920  0.37771989  0.81053631     0.14600
C3483       C  0.84983738  0.42420674  0.76849003    -0.16300
H3484       H  0.84917878  0.96938800  0.79250232     0.08900
H3485       H  0.80273982  0.05333347  0.82105201     0.06800
H3486       H  0.80125805  0.04030064  0.80411394     0.08000
H3487       H  0.83563683  0.07485872  0.80900068     0.07000
H3488       H  0.90774072  0.48844665  0.80583004     0.01900
H3489       H  0.88579699  0.46595081  0.82137733     0.02400
H3490       H  0.91953354  0.50553027  0.82216751     0.05900
H3491       H  0.79476402  0.40785406  0.82887722     0.04900
H3492       H  0.79952360  0.44741399  0.82353836    -0.00900
H3493       H  0.83084629  0.44446302  0.83048242     0.00600
H3494       H  0.82143119  0.91293671  0.76787055     0.04200
H3495       H  0.85969359  0.40779786  0.76866485     0.06200
H3496       H  0.86757201  0.44893290  0.76411126     0.07000
C3497       C  0.73684043  0.30276583  0.73726568    -0.22600
C3498       C  0.75692068  0.32818150  0.72774646     0.09400
C3499       C  0.78742110  0.34856506  0.73093007     0.09800
C3500       C  0.79651296  0.34500393  0.74405100    -0.17500
C3501       C  0.77575146  0.32163578  0.75407927    -0.27900
C3502       C  0.74593086  0.29915904  0.75044385     0.18100
C3503       C  0.74420148  0.33759735  0.71602857     0.12100
C3504       C  0.80988452  0.37526382  0.72073861    -0.12300
H3505       H  0.81950286  0.36198185  0.74679163     0.12400
C3506       C  0.72302937  0.27313389  0.76069791    -0.23100
H3507       H  0.71340417  0.28726923  0.73471239     0.08000
C3508       C  0.74114383  0.32455509  0.70310024     0.04400
C3509       C  0.72826056  0.33447074  0.69260161    -0.20300
C3510       C  0.71781220  0.35650295  0.69494453    -0.12600
C3511       C  0.72162417  0.37007343  0.70788530     0.13100
C3512       C  0.73490505  0.36051347  0.71819631    -0.23100
C3513       C  0.75089552  0.29982013  0.70052461    -0.06100
H3514       H  0.72523004  0.32400787  0.68272228     0.14600
C3515       C  0.71222248  0.39502831  0.71090970    -0.16300
H3516       H  0.73771066  0.37062606  0.72815045     0.08900
H3517       H  0.70059071  0.25831556  0.75621580     0.06800
H3518       H  0.71982486  0.28486071  0.76966748     0.08000
H3519       H  0.73107978  0.25606512  0.76416203     0.07000
H3520       H  0.80217447  0.39303703  0.71800521     0.01900
H3521       H  0.81194547  0.36414845  0.71132005     0.02400
H3522       H  0.83278216  0.38913940  0.72491766     0.05900
H3523       H  0.74682195  0.29196613  0.68986865     0.04900
H3524       H  0.73791787  0.27764041  0.70768192    -0.00900
H3525       H  0.77550270  0.31073142  0.70217143     0.00600
H3526       H  0.68714957  0.38349659  0.71106888     0.04200
H3527       H  0.72276851  0.41604274  0.70303823     0.06200
H3528       H  0.71948940  0.40502608  0.72109124     0.07000
C3529       C  0.96404609  0.29045092  0.50569834    -0.22600
C3530       C  0.98303487  0.30504589  0.49383957     0.09400
C3531       C  0.99634768  0.33915781  0.49059833     0.09800
C3532       C  0.98992931  0.35797443  0.49921629    -0.17500
C3533       C  0.97057933  0.34345825  0.51101091    -0.27900
C3534       C  0.95769383  0.30932805  0.51440237     0.18100
C3535       C  0.98716602  0.28382520  0.48448108     0.12100
C3536       C  0.01729460  0.35564945  0.47805982    -0.12300
H3537       H  0.00005152  0.38423533  0.49670834     0.12400
C3538       C  0.93630184  0.29251032  0.52677738    -0.23100
H3539       H  0.95375623  0.26409980  0.50798440     0.08000
C3540       C  0.45919102  0.25001193  0.48783107     0.04400
C3541       C  0.46629082  0.23092593  0.47967453    -0.20300
C3542       C  0.44874778  0.21543438  0.46859345    -0.12600
C3543       C  0.97234697  0.25428019  0.46362680     0.13100
C3544       C  0.97037075  0.27533721  0.47270105    -0.23100
C3545       C  0.47951688  0.26767414  0.49922631    -0.06100
H3546       H  0.48604808  0.22867311  0.48174974     0.14600
C3547       C  0.95243281  0.24489457  0.45148811    -0.16300
H3548       H  0.95518715  0.28485088  0.47076066     0.08900
H3549       H  0.94839866  0.30213385  0.53628577     0.06800
H3550       H  0.92709742  0.26545177  0.52740339     0.08000
H3551       H  0.91686303  0.29694144  0.52623789     0.07000
H3552       H  0.00496101  0.34532198  0.46867279     0.01900
H3553       H  0.46639997  0.31605541  0.47062879     0.02400
H3554       H  0.02622055  0.38265960  0.47721977     0.05900
H3555       H  0.49901944  0.26333912  0.49977038     0.04900
H3556       H  0.46649800  0.25881567  0.50923858    -0.00900
H3557       H  0.48868371  0.29462526  0.49750155     0.00600
H3558       H  0.93769682  0.25608163  0.45139072     0.04200
H3559       H  0.93737976  0.21772013  0.45184194     0.06200
H3560       H  0.96669695  0.25375716  0.44179971     0.07000
C3561       C  0.00820830  0.40045912  0.60410135    -0.22600
C3562       C  0.00496745  0.38145198  0.59299073     0.09400
C3563       C  0.53162282  0.36256269  0.58750253     0.09800
C3564       C  0.54972738  0.36591000  0.59855058    -0.17500
C3565       C  0.55413295  0.38799375  0.60861132    -0.27900
C3566       C  0.53969437  0.40703291  0.60769555     0.18100
C3567       C  0.99017389  0.38543833  0.58081352     0.12100
C3568       C  0.52855590  0.33945824  0.57666403    -0.12300
H3569       H  0.56081728  0.35132665  0.59928982     0.12400
C3570       C  0.54447738  0.43252589  0.61762907    -0.23100
H3571       H  0.99643295  0.41432290  0.60428407     0.08000
C3572       C  0.96136635  0.36071266  0.57715598     0.04400
C3573       C  0.95200272  0.36273801  0.56388947    -0.20300
C3574       C  0.97045000  0.38955732  0.55453939    -0.12600
C3575       C  0.99811541  0.41578378  0.55875813     0.13100
C3576       C  0.00750836  0.41330641  0.57188630    -0.23100
C3577       C  0.94074950  0.33245219  0.58721643    -0.06100
H3578       H  0.93069910  0.34289269  0.56064774     0.14600
C3579       C  0.01949877  0.44570849  0.54954268    -0.16300
H3580       H  0.53980493  0.42103543  0.56402926     0.08900
H3581       H  0.01112753  0.41781950  0.63151308     0.06800
H3582       H  0.55355635  0.45692956  0.61193431     0.08000
H3583       H  0.56078999  0.43520217  0.62549585     0.07000
H3584       H  0.53721385  0.35346925  0.56655761     0.01900
H3585       H  0.99512429  0.32390354  0.57958108     0.02400
H3586       H  0.54163285  0.32681323  0.57896877     0.05900
H3587       H  0.91888838  0.31543715  0.58271095     0.04900
H3588       H  0.93571252  0.34224543  0.59638723    -0.00900
H3589       H  0.95168086  0.31810075  0.59050436     0.00600
H3590       H  0.52869579  0.45041627  0.54147056     0.04200
H3591       H  0.01170493  0.44557221  0.53905968     0.06200
H3592       H  0.54204728  0.42263340  0.53736415     0.07000
C3593       C  0.74258963  0.27162992  0.47865390    -0.22600
C3594       C  0.73080974  0.28865569  0.48537089     0.09400
C3595       C  0.74969683  0.32239363  0.48733065     0.09800
C3596       C  0.78001225  0.33863649  0.48218309    -0.17500
C3597       C  0.79192604  0.32198301  0.47502048    -0.27900
C3598       C  0.77278092  0.28766376  0.47340585     0.18100
C3599       C  0.69868232  0.27009534  0.49051255     0.12100
C3600       C  0.73772655  0.34127386  0.49470742    -0.12300
H3601       H  0.79420408  0.36474441  0.48348206     0.12400
C3602       C  0.78361135  0.26722119  0.46641052    -0.23100
H3603       H  0.72783231  0.24555147  0.47741249     0.08000
C3604       C  0.67477788  0.26479195  0.48196893     0.04400
C3605       C  0.64457701  0.24556513  0.48716249    -0.20300
C3606       C  0.63794273  0.23158828  0.50067439    -0.12600
C3607       C  0.66199337  0.23616042  0.50908605     0.13100
C3608       C  0.69206005  0.25571298  0.50392255    -0.23100
C3609       C  0.68122635  0.27970627  0.46744907    -0.06100
H3610       H  0.62612585  0.24208967  0.48078349     0.14600
C3611       C  0.65690821  0.21998703  0.52337778    -0.16300
H3612       H  0.71052118  0.25925463  0.51031919     0.08900
H3613       H  0.78836068  0.27477334  0.45529870     0.06800
H3614       H  0.76622260  0.24057395  0.46727907     0.08000
H3615       H  0.80428386  0.26997772  0.47121317     0.07000
H3616       H  0.72979143  0.33019082  0.50532794     0.01900
H3617       H  0.71844850  0.34038194  0.48922058     0.02400
H3618       H  0.75542665  0.36755304  0.49529582     0.05900
H3619       H  0.65998113  0.27335592  0.46220357     0.04900
H3620       H  0.69385576  0.27043198  0.46152522    -0.00900
H3621       H  0.69509625  0.30696403  0.46743019     0.00600
H3622       H  0.66868480  0.20549054  0.52403856     0.04200
H3623       H  0.63267397  0.20268816  0.52632548     0.06200
H3624       H  0.66641742  0.23920327  0.53090774     0.07000
C3625       C  0.61265781  0.29065996  0.57613892    -0.22600
C3626       C  0.58238013  0.26624463  0.57482898     0.09400
C3627       C  0.56099504  0.25723955  0.58587316     0.09800
C3628       C  0.57037303  0.27329671  0.59805844    -0.17500
C3629       C  0.60065682  0.29797673  0.59936875    -0.27900
C3630       C  0.62223701  0.30641593  0.58833932     0.18100
C3631       C  0.57424182  0.24922439  0.56200788     0.12100
C3632       C  0.52830621  0.23109237  0.58467960    -0.12300
H3633       H  0.55390979  0.26704174  0.60650144     0.12400
C3634       C  0.65564944  0.33081912  0.58920187    -0.23100
H3635       H  0.62907883  0.29691395  0.56766531     0.08000
C3636       C  0.57055712  0.26421130  0.54990060     0.04400
C3637       C  0.56712995  0.24902453  0.53756014    -0.20300
C3638       C  0.56721496  0.21928162  0.53719533    -0.12600
C3639       C  0.56930343  0.20344573  0.54947219     0.13100
C3640       C  0.57278905  0.21870898  0.56175901    -0.23100
C3641       C  0.57105019  0.29653332  0.54998290    -0.06100
H3642       H  0.56586793  0.26115207  0.52806254     0.14600
C3643       C  0.56976107  0.17154896  0.54991494    -0.16300
H3644       H  0.57569944  0.20742000  0.57113019     0.08900
H3645       H  0.66233821  0.35242901  0.58186856     0.06800
H3646       H  0.66905914  0.31899951  0.58648539     0.08000
H3647       H  0.66194862  0.33955621  0.59958832     0.07000
H3648       H  0.52680510  0.20724932  0.58275117     0.01900
H3649       H  0.51851171  0.23837512  0.57605278     0.02400
H3650       H  0.51443513  0.22745276  0.59419131     0.05900
H3651       H  0.56735586  0.30453723  0.53966079     0.04900
H3652       H  0.59334490  0.31601952  0.55327204    -0.00900
H3653       H  0.55279606  0.29397147  0.55719918     0.00600
H3654       H  0.59172089  0.17571790  0.55376177     0.04200
H3655       H  0.56695745  0.16105566  0.53979753     0.06200
H3656       H  0.55102109  0.15295244  0.55698605     0.07000
C3657       C  0.73926152  0.04523277  0.50209791    -0.22600
C3658       C  0.72679919  0.03784921  0.48923453     0.09400
C3659       C  0.73654151  0.02205310  0.48018147     0.09800
C3660       C  0.75768666  0.01277646  0.48446041    -0.17500
C3661       C  0.76920535  0.01890138  0.49760763    -0.27900
C3662       C  0.76027775  0.03602021  0.50641862     0.18100
C3663       C  0.70553827  0.04948038  0.48514100     0.12100
C3664       C  0.74904567  0.53128161  0.46753736    -0.12300
H3665       H  0.78263341  0.50837947  0.48003201     0.12400
C3666       C  0.77332363  0.04541887  0.52030872    -0.23100
H3667       H  0.73238294  0.05825481  0.50881633     0.08000
C3668       C  0.67374733  0.03003423  0.48759017     0.04400
C3669       C  0.65496755  0.04265321  0.48336461    -0.20300
C3670       C  0.66729918  0.07446112  0.47684004    -0.12600
C3671       C  0.69947316  0.09447604  0.47522318     0.13100
C3672       C  0.71795580  0.08160299  0.47929950    -0.23100
C3673       C  0.66604848  0.46929404  0.48189435    -0.06100
H3674       H  0.63192494  0.49621526  0.47388609     0.14600
C3675       C  0.71492177  0.12970867  0.46942334    -0.16300
H3676       H  0.74244248  0.09669821  0.47785748     0.08900
H3677       H  0.76585495  0.02314575  0.52731332     0.06800
H3678       H  0.76573754  0.06105150  0.52523721     0.08000
H3679       H  0.79850801  0.05959063  0.51920062     0.07000
H3680       H  0.75419816  0.55725503  0.46672217     0.01900
H3681       H  0.72723453  0.51563027  0.46271959     0.02400
H3682       H  0.76727112  0.52994028  0.46171416     0.05900
H3683       H  0.64308751  0.45376927  0.47800008     0.04900
H3684       H  0.66877262  0.99767918  0.50504202    -0.00900
H3685       H  0.68275372  0.46761595  0.47504642     0.00600
H3686       H  0.73986735  0.14255758  0.47055881     0.04200
H3687       H  0.70596144  0.14351537  0.47484773     0.06200
H3688       H  0.71129022  0.13026001  0.45831251     0.07000
C3689       C  0.75252904  0.43262994  0.58129538    -0.22600
C3690       C  0.75230509  0.40494908  0.57649216     0.09400
C3691       C  0.74236788  0.37641042  0.58530978     0.09800
C3692       C  0.73114986  0.37560566  0.59864279    -0.17500
C3693       C  0.72937528  0.40256666  0.60308958    -0.27900
C3694       C  0.74121348  0.43184782  0.59449688     0.18100
C3695       C  0.76153004  0.40687355  0.56194649     0.12100
C3696       C  0.74270038  0.34666721  0.58050041    -0.12300
H3697       H  0.72177740  0.35312403  0.60524466     0.12400
C3698       C  0.74171065  0.46245554  0.59884248    -0.23100
H3699       H  0.76663014  0.97623641  0.57860203     0.08000
C3700       C  0.74047746  0.39998297  0.55166807     0.04400
C3701       C  0.75120466  0.41095550  0.53804030    -0.20300
C3702       C  0.78352331  0.95480664  0.53436933    -0.12600
C3703       C  0.80503449  0.95784606  0.54410636     0.13100
C3704       C  0.79253895  0.42228089  0.55834223    -0.23100
C3705       C  0.70683848  0.38305967  0.55520258    -0.06100
H3706       H  0.73506130  0.40705165  0.53024124     0.14600
C3707       C  0.83860147  0.97499014  0.54046827    -0.16300
H3708       H  0.80841507  0.42744518  0.56638869     0.08900
H3709       H  0.72706367  0.46792081  0.59221703     0.06800
H3710       H  0.76992612  0.99587958  0.60409088     0.08000
H3711       H  0.73385164  0.46018128  0.60969680     0.07000
H3712       H  0.76629320  0.35345426  0.57738273     0.01900
H3713       H  0.72818302  0.33734556  0.57160668     0.02400
H3714       H  0.73404937  0.32639633  0.58869907     0.05900
H3715       H  0.69359428  0.38001438  0.54593382     0.04900
H3716       H  0.70193952  0.39779542  0.56225754    -0.00900
H3717       H  0.69892634  0.35822548  0.56023948     0.00600
H3718       H  0.85196468  0.97625313  0.54951178     0.04200
H3719       H  0.84675444  0.00062952  0.53629159     0.06200
H3720       H  0.84305687  0.96118724  0.53279944     0.07000
C3721       C  0.90844877  0.19727086  0.38998069    -0.22600
C3722       C  0.92777063  0.18480890  0.38742780     0.09400
C3723       C  0.92629533  0.16999984  0.37505686     0.09800
C3724       C  0.90545803  0.16820972  0.36543629    -0.17500
C3725       C  0.88580444  0.18045183  0.36801729    -0.27900
C3726       C  0.88760492  0.19551695  0.38046111     0.18100
C3727       C  0.94724307  0.18533443  0.39855560     0.12100
C3728       C  0.94678921  0.15637534  0.37196380    -0.12300
H3729       H  0.90422726  0.15677441  0.35592844     0.12400
C3730       C  0.86847816  0.21076883  0.38372308    -0.23100
H3731       H  0.90946485  0.20810214  0.39963758     0.08000
C3732       C  0.97079321  0.21521676  0.40297915     0.04400
C3733       C  0.98378307  0.21496681  0.41548071    -0.20300
C3734       C  0.97357066  0.18559484  0.42372707    -0.12600
C3735       C  0.95133209  0.15531215  0.41873535     0.13100
C3736       C  0.93856444  0.15573495  0.40619718    -0.23100
C3737       C  0.98167869  0.24742351  0.39469123    -0.06100
H3738       H  0.00106329  0.23809574  0.41913836     0.14600
C3739       C  0.43566734  0.12484331  0.42240262    -0.16300
H3740       H  0.92018276  0.13300761  0.40275479     0.08900
H3741       H  0.87501624  0.22393666  0.39330937     0.06800
H3742       H  0.84419096  0.19144133  0.38515628     0.08000
H3743       H  0.87152787  0.22892456  0.37525782     0.07000
H3744       H  0.45932201  0.16287703  0.37456842     0.01900
H3745       H  0.48470375  0.20620446  0.36989690     0.02400
H3746       H  0.46107563  0.17925721  0.35734246     0.05900
H3747       H  0.00088848  0.26825091  0.39945039     0.04900
H3748       H  0.96309139  0.25314836  0.39388536    -0.00900
H3749       H  0.98950537  0.24578525  0.38424312     0.00600
H3750       H  0.92886505  0.12319008  0.43686825     0.04200
H3751       H  0.45359895  0.11909712  0.42523605     0.06200
H3752       H  0.42104630  0.10661001  0.41513335     0.07000
C3753       C  0.86139418  0.29840811  0.42318083    -0.22600
C3754       C  0.86445382  0.31855428  0.41149960     0.09400
C3755       C  0.86975216  0.35070455  0.41284327     0.09800
C3756       C  0.87043093  0.36152213  0.42598418    -0.17500
C3757       C  0.86507512  0.34048642  0.43769656    -0.27900
C3758       C  0.86169472  0.30902181  0.43633124     0.18100
C3759       C  0.85739323  0.30371922  0.39819966     0.12100
C3760       C  0.87306859  0.37284880  0.40044008    -0.12300
H3761       H  0.87301904  0.38563204  0.42710605     0.12400
C3762       C  0.85816719  0.28606817  0.44846681    -0.23100
H3763       H  0.85747659  0.27375396  0.42202422     0.08000
C3764       C  0.87982695  0.30446369  0.38931352     0.04400
C3765       C  0.87119481  0.28907795  0.37693925    -0.20300
C3766       C  0.84057106  0.27214264  0.37365337    -0.12600
C3767       C  0.81822648  0.27195824  0.38248978     0.13100
C3768       C  0.82701498  0.28788557  0.39466037    -0.23100
C3769       C  0.91250118  0.32057321  0.39309068    -0.06100
H3770       H  0.88813524  0.28894466  0.37011448     0.14600
C3771       C  0.78503296  0.25548914  0.37938670    -0.16300
H3772       H  0.80997545  0.28767017  0.40154881     0.08900
H3773       H  0.87628238  0.27953945  0.44773610     0.06800
H3774       H  0.83571568  0.26317129  0.44845665     0.08000
H3775       H  0.86006513  0.29716448  0.45840251     0.07000
H3776       H  0.85214087  0.36114846  0.39457683     0.01900
H3777       H  0.89270693  0.37717795  0.39373982     0.02400
H3778       H  0.87688154  0.39714365  0.40334550     0.05900
H3779       H  0.92704719  0.31865720  0.38501561     0.04900
H3780       H  0.91425952  0.30838679  0.40278419    -0.00900
H3781       H  0.92132972  0.34707605  0.39452132     0.00600
H3782       H  0.77138341  0.23558540  0.38744166     0.04200
H3783       H  0.78015904  0.24463137  0.36929978     0.06200
H3784       H  0.77745223  0.27392229  0.37931061     0.07000
C3785       C  0.67601012  0.12530504  0.39240429    -0.22600
C3786       C  0.67380589  0.15174500  0.39713061     0.09400
C3787       C  0.68615952  0.18164916  0.38894409     0.09800
C3788       C  0.70170033  0.18486625  0.37642020    -0.17500
C3789       C  0.70547100  0.15900532  0.37216478    -0.27900
C3790       C  0.69175856  0.12858612  0.38002260     0.18100
C3791       C  0.66170391  0.14819486  0.41136643     0.12100
C3792       C  0.68331835  0.21015816  0.39351624    -0.12300
H3793       H  0.71230212  0.20813570  0.37030568     0.12400
C3794       C  0.69402224  0.09967930  0.37543848    -0.23100
H3795       H  0.66652326  0.10244109  0.39876352     0.08000
C3796       C  0.63108768  0.12547056  0.41529779     0.04400
C3797       C  0.62265636  0.11657466  0.42928112    -0.20300
C3798       C  0.64414696  0.13038411  0.43933773    -0.12600
C3799       C  0.67369559  0.15642872  0.43540249     0.13100
C3800       C  0.68236541  0.16434139  0.42144014    -0.23100
C3801       C  0.60757166  0.11026148  0.40474285    -0.06100
H3802       H  0.59967543  0.09733693  0.43229676     0.14600
C3803       C  0.69635798  0.17675245  0.44559102    -0.16300
H3804       H  0.70574023  0.18240872  0.41840357     0.08900
H3805       H  0.68492175  0.09363816  0.36508449     0.06800
H3806       H  0.68087149  0.07740088  0.38253389     0.08000
H3807       H  0.71801569  0.10561414  0.37509086     0.07000
H3808       H  0.69511498  0.21875283  0.40317375     0.01900
H3809       H  0.65895177  0.20231604  0.39524414     0.02400
H3810       H  0.69353560  0.23133816  0.38571422     0.05900
H3811       H  0.58457301  0.09368845  0.40960132     0.04900
H3812       H  0.61324010  0.09557865  0.39801996    -0.00900
H3813       H  0.60677948  0.13005990  0.39837999     0.00600
H3814       H  0.71708726  0.17480388  0.44438843     0.04200
H3815       H  0.68714362  0.16941174  0.45634309     0.06200
H3816       H  0.70289088  0.20301241  0.44358393     0.07000
C3817       C  0.83197701  0.45302112  0.05278032    -0.22600
C3818       C  0.82705923  0.42163757  0.05672792     0.09400
C3819       C  0.83515018  0.40477403  0.04754418     0.09800
C3820       C  0.85081586  0.42115548  0.03505606    -0.17500
C3821       C  0.85836242  0.45388837  0.03168664    -0.27900
C3822       C  0.84723850  0.46925687  0.04029150     0.18100
C3823       C  0.81770052  0.40941884  0.07120125     0.12100
C3824       C  0.82831543  0.37012726  0.05120599    -0.12300
H3825       H  0.85907378  0.40925598  0.02840248     0.12400
C3826       C  0.85150284  0.50294529  0.03672033    -0.23100
H3827       H  0.82513149  0.46557056  0.05978645     0.08000
C3828       C  0.83980710  0.41711687  0.08103667     0.04400
C3829       C  0.83054086  0.40742282  0.09484659    -0.20300
C3830       C  0.79967952  0.39059367  0.09916107    -0.12600
C3831       C  0.77743267  0.38271415  0.08923279     0.13100
C3832       C  0.78683390  0.39228148  0.07533033    -0.23100
C3833       C  0.87327929  0.43614494  0.07698790    -0.06100
H3834       H  0.84765318  0.41359116  0.10237193     0.14600
C3835       C  0.74389242  0.36372302  0.09306695    -0.16300
H3836       H  0.77012367  0.38673875  0.06765228     0.08900
H3837       H  0.86603068  0.52032958  0.04426661     0.06800
H3838       H  0.82904463  0.50146782  0.03708398     0.08000
H3839       H  0.86184962  0.51291132  0.02626154     0.07000
H3840       H  0.80341546  0.35365220  0.05297670     0.01900
H3841       H  0.83973669  0.36935110  0.06066812     0.02400
H3842       H  0.83621856  0.36053880  0.04288691     0.05900
H3843       H  0.88746511  0.44019333  0.08599200     0.04900
H3844       H  0.87940566  0.46063250  0.07205623    -0.00900
H3845       H  0.87887653  0.42241453  0.06968270     0.00600
H3846       H  0.73771086  0.37846743  0.09950429     0.04200
H3847       H  0.73787387  0.33998864  0.09873178     0.06200
H3848       H  0.73002085  0.35804948  0.08388027     0.07000
C3849       C  0.87900427  0.29733053  0.16327845    -0.22600
C3850       C  0.88952769  0.32987065  0.15826543     0.09400
C3851       C  0.92091328  0.35305932  0.15805686     0.09800
C3852       C  0.94105383  0.34326455  0.16318236    -0.17500
C3853       C  0.93038814  0.31093074  0.16869696    -0.27900
C3854       C  0.89894642  0.28755246  0.16856604     0.18100
C3855       C  0.86728321  0.33838887  0.15257453     0.12100
C3856       C  0.93300201  0.38815298  0.15257617    -0.12300
H3857       H  0.96505139  0.36121949  0.16335427     0.12400
C3858       C  0.88626878  0.25205985  0.17371440    -0.23100
H3859       H  0.85496283  0.27952995  0.16309567     0.08000
C3860       C  0.85939787  0.33326406  0.13883876     0.04400
C3861       C  0.83782100  0.34072440  0.13382505    -0.20300
C3862       C  0.82384351  0.35367004  0.14209202    -0.12600
C3863       C  0.83141848  0.35825749  0.15600454     0.13100
C3864       C  0.85306768  0.35048898  0.16106828    -0.23100
C3865       C  0.87395701  0.32011593  0.12940190    -0.06100
H3866       H  0.83205603  0.33659387  0.12320984     0.14600
C3867       C  0.81759455  0.37209041  0.16543839    -0.16300
H3868       H  0.85910626  0.35403081  0.17167645     0.08900
H3869       H  0.89851941  0.24146713  0.16839841     0.06800
H3870       H  0.86175006  0.23681463  0.17177988     0.08000
H3871       H  0.88852954  0.25023457  0.18493942     0.07000
H3872       H  0.92264673  0.39966427  0.15866598     0.01900
H3873       H  0.92729815  0.38869914  0.14169727     0.02400
H3874       H  0.95806971  0.40312253  0.15312187     0.05900
H3875       H  0.86535125  0.31778384  0.11891348     0.04900
H3876       H  0.86901717  0.29535997  0.13348895    -0.00900
H3877       H  0.89892094  0.33701737  0.12858097     0.00600
H3878       H  0.79267742  0.35516540  0.16668186     0.04200
H3879       H  0.82241884  0.39667314  0.16115571     0.06200
H3880       H  0.82694424  0.37506684  0.17578898     0.07000
C3881       C  0.95480422  0.23459338  0.23004150    -0.22600
C3882       C  0.93523237  0.24158232  0.23746917     0.09400
C3883       C  0.92545649  0.26237123  0.23142929     0.09800
C3884       C  0.93539908  0.27563735  0.21798524    -0.17500
C3885       C  0.95484606  0.26862283  0.21035899    -0.27900
C3886       C  0.46118442  0.25483995  0.21526400     0.18100
C3887       C  0.92346389  0.22570096  0.25131915     0.12100
C3888       C  0.90389762  0.26995984  0.23905316    -0.12300
H3889       H  0.92784484  0.29163367  0.21340143     0.12400
C3890       C  0.48560199  0.24938893  0.20919761    -0.23100
H3891       H  0.45749272  0.22697273  0.23423931     0.08000
C3892       C  0.89798580  0.19367192  0.25308436     0.04400
C3893       C  0.88204453  0.18293884  0.26583842    -0.20300
C3894       C  0.89080931  0.20381036  0.27667231    -0.12600
C3895       C  0.91747272  0.23513674  0.27512885     0.13100
C3896       C  0.93397382  0.24528652  0.26251717    -0.23100
C3897       C  0.88641778  0.17181121  0.24127956    -0.06100
H3898       H  0.86141039  0.15909897  0.26708112     0.14600
C3899       C  0.92761859  0.25977441  0.28598289    -0.16300
H3900       H  0.95347390  0.26996736  0.26100897     0.08900
H3901       H  0.47844432  0.23763698  0.19932643     0.06800
H3902       H  0.49014589  0.23297164  0.21609128     0.08000
H3903       H  0.50720465  0.27320333  0.20755308     0.07000
H3904       H  0.91452090  0.28314706  0.24829985     0.01900
H3905       H  0.88258543  0.24670271  0.24219747     0.02400
H3906       H  0.89786465  0.28583111  0.23262860     0.05900
H3907       H  0.86592547  0.14775130  0.24441523     0.04900
H3908       H  0.90425482  0.16692261  0.23734277    -0.00900
H3909       H  0.88034302  0.18402237  0.23291067     0.00600
H3910       H  0.95090219  0.26638905  0.28884450     0.04200
H3911       H  0.91270273  0.25062015  0.29542672     0.06200
H3912       H  0.92792151  0.28241483  0.28185398     0.07000
C3913       C  0.75744358  0.04281123  0.26213294    -0.22600
C3914       C  0.75147027  0.05515165  0.24999919     0.09400
C3915       C  0.74698842  0.08236815  0.25014918     0.09800
C3916       C  0.75031084  0.09791240  0.26238551    -0.17500
C3917       C  0.75813009  0.08690786  0.27446927    -0.27900
C3918       C  0.76094945  0.05832830  0.27439615     0.18100
C3919       C  0.75447897  0.04216691  0.23699931     0.12100
C3920       C  0.73980697  0.09565872  0.23728833    -0.12300
H3921       H  0.74768184  0.11942039  0.26240123     0.12400
C3922       C  0.76935279  0.04497234  0.28686814    -0.23100
H3923       H  0.76092426  0.02188948  0.26180351     0.08000
C3924       C  0.78331799  0.05416683  0.23053340     0.04400
C3925       C  0.78581796  0.04098821  0.21842435    -0.20300
C3926       C  0.76017924  0.01588270  0.21247768    -0.12600
C3927       C  0.73102192  0.00387726  0.21907958     0.13100
C3928       C  0.72868842  0.01732903  0.23127344    -0.23100
C3929       C  0.81157141  0.08101493  0.23642798    -0.06100
H3930       H  0.80826209  0.05047218  0.21365614     0.14600
C3931       C  0.70582064  0.48257894  0.21121762    -0.16300
H3932       H  0.70667333  0.00839257  0.23643078     0.08900
H3933       H  0.77204904  0.02360254  0.28462169     0.06800
H3934       H  0.75118406  0.03637772  0.29507957     0.08000
H3935       H  0.79125369  0.06436652  0.29055199     0.07000
H3936       H  0.71830762  0.07617185  0.23333416     0.01900
H3937       H  0.75844834  0.10362026  0.22935371     0.02400
H3938       H  0.73705937  0.11716126  0.23918946     0.05900
H3939       H  0.83230734  0.08788339  0.22996496     0.04900
H3940       H  0.81451932  0.07257878  0.24680114    -0.00900
H3941       H  0.80964317  0.10340720  0.23717115     0.00600
H3942       H  0.70505925  0.45886578  0.20986501     0.04200
H3943       H  0.70187512  0.49229372  0.20135106     0.06200
H3944       H  0.68682584  0.47738059  0.21857130     0.07000
C3945       C  0.87222569  0.04908712  0.15833738    -0.22600
C3946       C  0.88117676  0.08264807  0.15797731     0.09400
C3947       C  0.86314639  0.09280682  0.16491944     0.09800
C3948       C  0.83643958  0.06911651  0.17209765    -0.17500
C3949       C  0.82710172  0.03540769  0.17243056    -0.27900
C3950       C  0.84523898  0.02518633  0.16548019     0.18100
C3951       C  0.90929712  0.10695025  0.15011626     0.12100
C3952       C  0.87213096  0.12866603  0.16478460    -0.12300
H3953       H  0.82251879  0.07699270  0.17737988     0.12400
C3954       C  0.83682318  0.98949457  0.16589876    -0.23100
H3955       H  0.88641179  0.04165390  0.15299264     0.08000
C3956       C  0.93783162  0.12059676  0.15598934     0.04400
C3957       C  0.96365799  0.14471219  0.14830889    -0.20300
C3958       C  0.96156479  0.15528333  0.13487238    -0.12600
C3959       C  0.93285824  0.14170186  0.12905667     0.13100
C3960       C  0.90703218  0.11763463  0.13677971    -0.23100
C3961       C  0.94090605  0.10997316  0.17038837    -0.06100
H3962       H  0.98566023  0.15526856  0.15278995     0.14600
C3963       C  0.42305134  0.13151546  0.12091855    -0.16300
H3964       H  0.88486022  0.10729908  0.13247858     0.08900
H3965       H  0.85435282  0.98623021  0.16043849     0.06800
H3966       H  0.81507116  0.97485838  0.16087967     0.08000
H3967       H  0.83450352  0.97973888  0.17670789     0.07000
H3968       H  0.87337370  0.13855981  0.15409042     0.01900
H3969       H  0.89465211  0.14292880  0.16925302     0.02400
H3970       H  0.85551006  0.13230516  0.17084063     0.05900
H3971       H  0.96485311  0.12326381  0.17342793     0.04900
H3972       H  0.93285078  0.08316137  0.17115520    -0.00900
H3973       H  0.92710640  0.11508677  0.17770682     0.00600
H3974       H  0.43645701  0.12572971  0.11367109     0.04200
H3975       H  0.42836962  0.15735440  0.11892409     0.06200
H3976       H  0.39870654  0.11514135  0.11894758     0.07000
C3977       C  0.02079733  0.17416968  0.07194860    -0.22600
C3978       C  0.53184668  0.18273671  0.07131688     0.09400
C3979       C  0.55552717  0.19887937  0.08025250     0.09800
C3980       C  0.54879275  0.20621434  0.09311324    -0.17500
C3981       C  0.51896067  0.19783314  0.09708275    -0.27900
C3982       C  0.01339947  0.18513810  0.08367827     0.18100
C3983       C  0.53534795  0.16720099  0.05925787     0.12100
C3984       C  0.58754324  0.20753685  0.07633707    -0.12300
H3985       H  0.56655611  0.21687736  0.10036137     0.12400
C3986       C  0.98451507  0.18660775  0.08387846    -0.23100
H3987       H  0.00481408  0.16511282  0.06386782     0.08000
C3988       C  0.04095192  0.12216850  0.06086621     0.04400
C3989       C  0.03710888  0.10436007  0.04928016    -0.20300
C3990       C  0.52821913  0.13196073  0.03594719    -0.12600
C3991       C  0.53492464  0.16505887  0.03438365     0.13100
C3992       C  0.53852105  0.18241832  0.04614856    -0.23100
C3993       C  0.03162330  0.10402878  0.07486106    -0.06100
H3994       H  0.02760346  0.07788612  0.05060596     0.14600
C3995       C  0.53611700  0.18128147  0.02051372    -0.16300
H3996       H  0.54201148  0.20718259  0.04518926     0.08900
H3997       H  0.96471144  0.16137467  0.08349984     0.06800
H3998       H  0.98487818  0.20188424  0.07474643     0.08000
H3999       H  0.98158971  0.19795310  0.09301198     0.07000
H4000       H  0.59561729  0.22423546  0.06686270     0.01900
H4001       H  0.58844764  0.18496971  0.07442432     0.02400
H4002       H  0.60332591  0.22023427  0.08453270     0.05900
H4003       H  0.02321989  0.07728281  0.07429982     0.04900
H4004       H  0.01313940  0.10672235  0.07966007    -0.00900
H4005       H  0.05125481  0.11408637  0.08153251     0.00600
H4006       H  0.51411964  0.16696552  0.01561268     0.04200
H4007       H  0.55465243  0.18253634  0.01390353     0.06200
H4008       H  0.54055963  0.20682067  0.02127634     0.07000
C4009       C  0.69936380  0.18912934  0.25853815    -0.22600
C4010       C  0.70947929  0.22253397  0.25534530     0.09400
C4011       C  0.72242988  0.24545988  0.26541837     0.09800
C4012       C  0.72778556  0.23490505  0.27818417    -0.17500
C4013       C  0.72053551  0.20211151  0.28084193    -0.27900
C4014       C  0.70481524  0.17858889  0.27123174     0.18100
C4015       C  0.70951701  0.23319958  0.24095222     0.12100
C4016       C  0.73215242  0.28121345  0.26237658    -0.12300
H4017       H  0.73997274  0.25277633  0.28563414     0.12400
C4018       C  0.69493857  0.14262446  0.27384429    -0.23100
H4019       H  0.68888335  0.17157177  0.25077954     0.08000
C4020       C  0.73246445  0.23734778  0.23141563     0.04400
C4021       C  0.72982522  0.24344618  0.21750353    -0.20300
C4022       C  0.70486849  0.24558067  0.21298586    -0.12600
C4023       C  0.68242249  0.24267061  0.22268117     0.13100
C4024       C  0.68530604  0.23679631  0.23660617    -0.23100
C4025       C  0.75940439  0.23473826  0.23591033    -0.06100
H4026       H  0.74684616  0.24558683  0.21004887     0.14600
C4027       C  0.65414865  0.24337653  0.21887754    -0.16300
H4028       H  0.66782556  0.23349185  0.24406885     0.08900
H4029       H  0.70670544  0.13553051  0.26624203     0.06800
H4030       H  0.67004604  0.12748729  0.27276888     0.08000
H4031       H  0.69985942  0.13673561  0.28428484     0.07000
H4032       H  0.71216791  0.28342961  0.25960687     0.01900
H4033       H  0.74939075  0.29178880  0.25369500     0.02400
H4034       H  0.74220394  0.29589600  0.27136879     0.05900
H4035       H  0.77542339  0.23912941  0.22713283     0.04900
H4036       H  0.75168377  0.20974785  0.24075108    -0.00900
H4037       H  0.77189543  0.25334953  0.24342682     0.00600
H4038       H  0.63379909  0.22016158  0.22297439     0.04200
H4039       H  0.65177913  0.24556279  0.20772997     0.06200
H4040       H  0.65405037  0.26442552  0.22351321     0.07000
C4041       C  0.66150772  0.08063759  0.14989894    -0.22600
C4042       C  0.64567830  0.09741765  0.15165702     0.09400
C4043       C  0.61560058  0.08384726  0.14751364     0.09800
C4044       C  0.60136893  0.05264115  0.14227761    -0.17500
C4045       C  0.61657861  0.03479209  0.14117545    -0.27900
C4046       C  0.64746515  0.04948988  0.14464759     0.18100
C4047       C  0.66069146  0.12866546  0.15837419     0.12100
C4048       C  0.59838555  0.10199149  0.14890985    -0.12300
H4049       H  0.57794977  0.04172438  0.13945357     0.12400
C4050       C  0.66616887  0.03314137  0.14265886    -0.23100
H4051       H  0.68481991  0.09178795  0.15292194     0.08000
C4052       C  0.66122640  0.12898595  0.17276366     0.04400
C4053       C  0.67332871  0.15914074  0.17877291    -0.20300
C4054       C  0.68470205  0.18891973  0.17069970    -0.12600
C4055       C  0.68618097  0.18857190  0.15619455     0.13100
C4056       C  0.67398153  0.15826840  0.15023638    -0.23100
C4057       C  0.64813604  0.09745391  0.18176675    -0.06100
H4058       H  0.67245349  0.15917496  0.18985662     0.14600
C4059       C  0.70082074  0.21973574  0.14687930    -0.16300
H4060       H  0.67409502  0.15752265  0.13916813     0.08900
H4061       H  0.65789265  0.01118828  0.14994532     0.06800
H4062       H  0.69046295  0.04986080  0.14461549     0.08000
H4063       H  0.66499650  0.02594756  0.13194094     0.07000
H4064       H  0.61037208  0.12590938  0.14272427     0.01900
H4065       H  0.59673878  0.10661178  0.15983193     0.02400
H4066       H  0.57499256  0.08771337  0.14527204     0.05900
H4067       H  0.65012122  0.10217539  0.19282821     0.04900
H4068       H  0.66045198  0.08419307  0.17947924    -0.00900
H4069       H  0.62371035  0.08148581  0.17985578     0.00600
H4070       H  0.70270963  0.21456880  0.13605193     0.04200
H4071       H  0.72410656  0.23669837  0.15011250     0.06200
H4072       H  0.68706057  0.23200304  0.14706445     0.07000
C4073       C  0.50628504  0.96348011  0.09914859    -0.22600
C4074       C  0.51526934  0.95497641  0.08712345     0.09400
C4075       C  0.51780066  0.42292627  0.08447125     0.09800
C4076       C  0.53062412  0.42282072  0.09703973    -0.17500
C4077       C  0.52517227  0.43674125  0.10835195    -0.27900
C4078       C  0.51942740  0.96305610  0.11159635     0.18100
C4079       C  0.50740362  0.96426668  0.07380642     0.12100
C4080       C  0.52629813  0.41076085  0.07213389    -0.12300
H4081       H  0.54696083  0.41448439  0.09765916     0.12400
C4082       C  0.50929009  0.97240555  0.12433623    -0.23100
H4083       H  0.49034218  0.97236776  0.09861271     0.08000
C4084       C  0.46344197  0.42644393  0.06393439     0.04400
C4085       C  0.47282375  0.95656700  0.05571057    -0.20300
C4086       C  0.49598405  0.98426874  0.04812575    -0.12600
C4087       C  0.52471506  0.00284327  0.05360710     0.13100
C4088       C  0.53010345  0.99257105  0.06639012    -0.23100
C4089       C  0.96735338  0.39711273  0.06067823    -0.06100
H4090       H  0.96241711  0.43107623  0.03851600     0.14600
C4091       C  0.54944870  0.03389991  0.04610174    -0.16300
H4092       H  0.55219537  0.00664543  0.07065891     0.08900
H4093       H  0.50131797  0.95202574  0.13245049     0.06800
H4094       H  0.49028654  0.97703836  0.12237620     0.08000
H4095       H  0.52824494  0.99518244  0.12808602     0.07000
H4096       H  0.53810964  0.43119922  0.06408141     0.01900
H4097       H  0.50549439  0.39060445  0.06798941     0.02400
H4098       H  0.54165629  0.40109275  0.07474003     0.05900
H4099       H  0.95611864  0.38430349  0.05143504     0.04900
H4100       H  0.43270717  0.39704590  0.08091369    -0.00900
H4101       H  0.98681379  0.39325489  0.06245006     0.00600
H4102       H  0.57025291  0.04588646  0.05204355     0.06600
H4103       H  0.54139888  0.05173688  0.04428021     0.06200
H4104       H  0.55564348  0.02808027  0.03611522     0.07000
C4105       C  0.56222287  0.96117992  0.12340033     0.80100
N4106       N  0.55693511  0.47477558  0.12498630    -0.78200
C4107       C  0.57775288  0.48417832  0.13466496     0.82600
N4108       N  0.60557279  0.97769437  0.14192980    -0.78100
C4109       C  0.59066503  0.94661862  0.13786105     0.82700
N4110       N  0.56916731  0.93836393  0.12842976    -0.79900
C4111       C  0.69314120  0.73119306  0.19429797     0.80100
N4112       N  0.69108717  0.75684925  0.18842286    -0.78200
C4113       C  0.68233870  0.75577373  0.17530748     0.82600
N4114       N  0.67521141  0.72895444  0.16829022    -0.78100
C4115       C  0.67778705  0.70368595  0.17398449     0.82700
N4116       N  0.68640568  0.70468642  0.18705998    -0.79900
C4117       C  0.51710222  0.71348275  0.10569671     0.80100
N4118       N  0.53874601  0.73657340  0.11319805    -0.78200
C4119       C  0.53154505  0.74104667  0.12602443     0.82600
N4120       N  0.50289372  0.72182188  0.13152380    -0.78100
C4121       C  0.98194964  0.70901624  0.12491609     0.82700
N4122       N  0.98802215  0.70696779  0.11154564    -0.79900
C4123       C  0.76542023  0.51056032  0.19417375     0.80100
N4124       N  0.74351020  0.97678752  0.19389194    -0.78200
C4125       C  0.74903766  0.96686328  0.18191540     0.82600
N4126       N  0.76837024  0.49922090  0.16726540    -0.78100
C4127       C  0.79072997  0.52714509  0.17228685     0.82700
N4128       N  0.78887927  0.53249618  0.18565109    -0.79900
C4129       C  0.46597406  0.77785399  0.19547375     0.80100
N4130       N  0.49421462  0.78925002  0.18984401    -0.78200
C4131       C  0.50262232  0.80545210  0.17721533     0.82600
N4132       N  0.48232839  0.81070120  0.17013800    -0.78100
C4133       C  0.45372408  0.79938058  0.17576194     0.82700
N4134       N  0.94971357  0.79411128  0.18687960    -0.79900
C4135       C  0.79694932  0.88485013  0.11283245     0.80100
N4136       N  0.77229348  0.88316986  0.11908418    -0.78200
C4137       C  0.76545284  0.87407905  0.13267044     0.82600
N4138       N  0.78374818  0.86638893  0.14017497    -0.78100
C4139       C  0.80902653  0.86860797  0.13394907     0.82700
N4140       N  0.81512187  0.87766146  0.12037070    -0.79900
Zr4141     Zr  0.68924406  0.85969693  0.16633234     2.17500
O4142       O  0.71353959  0.86354292  0.18799368    -0.51400
O4143       O  0.73163466  0.86667798  0.15157145    -0.74600
O4144       O  0.69026035  0.80973556  0.17289117    -0.81400
O4145       O  0.70165246  0.94419101  0.17242543    -0.83200
O4146       O  0.65175106  0.76874743  0.16199216    -0.78800
O4147       O  0.72560343  0.91419527  0.17327904    -0.90400
O4148       O  0.71967354  0.87345646  0.12982440    -0.76400
O4149       O  0.67059952  0.83159786  0.14598903    -0.85900
O4150       O  0.69023366  0.89909754  0.14965480    -0.85600
O4151       O  0.63839983  0.81571965  0.17268390    -0.72300
O4152       O  0.65683581  0.87803007  0.17598328    -0.84500
Zr4153     Zr  0.58754034  0.84456233  0.14488293     2.26400
Zr4154     Zr  0.62000178  0.78837462  0.15194987     2.06300
Zr4155     Zr  0.65731294  0.91649521  0.15894229     2.10000
Zr4156     Zr  0.67089084  0.87076327  0.12958217     1.78800
O4157       O  0.65018869  0.94940874  0.17546844    -0.93300
O4158       O  0.66743889  0.83422430  0.11201071    -0.41100
O4159       O  0.63804106  0.88882197  0.13855222    -0.77700
O4160       O  0.62010034  0.82691562  0.13495725    -0.96400
O4161       O  0.58681740  0.80529712  0.16148021    -0.89700
O4162       O  0.60667897  0.87340935  0.16501233    -0.92500
C4163       C  0.73726218  0.87124645  0.13853240     1.01200
C4164       C  0.72390907  0.93994873  0.17546603     1.14100
C4165       C  0.67470458  0.77985675  0.16959814     1.04900
O4166       O  0.63182651  0.76171925  0.13405958    -0.94700
O4167       O  0.57562911  0.75989359  0.13836007    -0.90400
O4168       O  0.55384694  0.79187903  0.13581239    -0.83600
C4169       C  0.55498949  0.76568453  0.13402986     1.11600
O4170       O  0.62802756  0.83748214  0.20375579    -0.96700
Zr4171     Zr  0.60586377  0.83427336  0.18155273     1.88900
O4172       O  0.54143467  0.82760973  0.15915902    -0.73300
O4173       O  0.58692177  0.73641542  0.16507373    -0.52600
O4174       O  0.57944618  0.77982483  0.19367822    -0.97300
O4175       O  0.59680123  0.86791536  0.19709538    -0.54500
O4176       O  0.55238397  0.81705810  0.18059734    -0.73800
C4177       C  0.53407559  0.81764367  0.17186813     0.98500
O4178       O  0.56839003  0.85135588  0.12297850    -0.62700
O4179       O  0.69180470  0.96504993  0.14421436    -0.57500
O4180       O  0.58370503  0.89320937  0.14018366    -0.94100
O4181       O  0.62489211  0.93548524  0.14919822    -0.92600
O4182       O  0.70610741  0.92635207  0.11987751    -0.92900
O4183       O  0.65653487  0.88399641  0.10755645    -0.91700
C4184       C  0.60013815  0.92347583  0.14279030     1.17300
H4185       H  0.71058205  0.91745128  0.14778639     0.33300
H4186       H  0.61205790  0.81651037  0.12655929     0.44100
H4187       H  0.59429161  0.88230335  0.16806169     0.37700
H4188       H  0.63879831  0.80081799  0.17972810     0.34100
H4189       H  0.68570326  0.84765143  0.10585295     0.25900
H4190       H  0.56678503  0.73481430  0.16554801     0.31900
H4191       H  0.58896303  0.76769302  0.19002110     0.37800
H4192       H  0.72210312  0.92446423  0.11480326     0.32200
H4193       H  0.68344032  0.96019868  0.13500662     0.31100
H4194       H  0.63513944  0.93306117  0.18242695     0.32800
H4195       H  0.58055533  0.85183521  0.20372181     0.31800
H4196       H  0.63701750  0.88310172  0.10960927     0.35800
H4197       H  0.57487433  0.84049179  0.11637362     0.28500
H4198       H  0.72983586  0.85843787  0.18605349     0.32700
H4199       H  0.61070173  0.82506023  0.21051144     0.35600
H4200       H  0.68797925  0.98258059  0.14711777     0.28200
H4201       H  0.54601333  0.83734562  0.12400354     0.41100
H4202       H  0.62545472  0.73934581  0.13813383     0.31100
H4203       H  0.67134846  0.81774986  0.11681237     0.38700
H4204       H  0.58686841  0.87792896  0.19169017     0.30600
H4205       H  0.58445785  0.71921059  0.15892271     0.30700
H4206       H  0.69828864  0.84464463  0.19403627     0.30900
Zr4207     Zr  0.79692224  0.67040250  0.34904479     2.17500
O4208       O  0.78158055  0.62765629  0.36759802    -0.51400
O4209       O  0.81181107  0.71661810  0.36295505    -0.74600
O4210       O  0.84173691  0.67754688  0.36029827    -0.81400
O4211       O  0.71698428  0.65716179  0.34567539    -0.83200
O4212       O  0.87893488  0.69094922  0.34399612    -0.78800
O4213       O  0.74966247  0.65566365  0.36096176    -0.90400
O4214       O  0.83467339  0.76311557  0.34864566    -0.76400
O4215       O  0.84107840  0.71261445  0.33676404    -0.85900
O4216       O  0.78138277  0.70501203  0.33748693    -0.85600
O4217       O  0.81270748  0.64154828  0.33452080    -0.72300
O4218       O  0.75711407  0.63533883  0.33481751    -0.84500
Zr4219     Zr  0.80300861  0.68594888  0.29566372     2.26400
Zr4220     Zr  0.85648225  0.68457487  0.32177380     2.06300
Zr4221     Zr  0.74240672  0.67053714  0.32286443     2.10000
Zr4222     Zr  0.82576090  0.74706631  0.32522479     1.78800
O4223       O  0.69349144  0.62098872  0.32056473    -0.93300
O4224       O  0.87904928  0.78987061  0.32474994    -0.41100
O4225       O  0.78658992  0.71370779  0.31044640    -0.77700
O4226       O  0.84296098  0.72100208  0.30986032    -0.96400
O4227       O  0.81788715  0.65067871  0.30693522    -0.89700
O4228       O  0.75836421  0.64335441  0.30760289    -0.92500
C4229       C  0.82637696  0.74797964  0.36058185     1.01200
C4230       C  0.72415279  0.65271239  0.35782853     1.14100
C4231       C  0.86921752  0.68652027  0.35658204     1.04900
O4232       O  0.91075439  0.72399820  0.32062227    -0.94700
O4233       O  0.88211849  0.69649600  0.29920905    -0.90400
O4234       O  0.84949000  0.69735326  0.28379580    -0.83600
C4235       C  0.87486691  0.70001992  0.28698453     1.11600
O4236       O  0.75516229  0.56422795  0.33721358    -0.96700
Zr4237     Zr  0.77366526  0.60887876  0.31934881     1.88900
O4238       O  0.78627056  0.63942287  0.28178887    -0.73300
O4239       O  0.86640365  0.63893609  0.32265820    -0.52600
O4240       O  0.80130837  0.57918985  0.31786951    -0.97300
O4241       O  0.72045826  0.56666736  0.31808728    -0.54500
O4242       O  0.76883049  0.59316317  0.29586868    -0.73800
C4243       C  0.77497973  0.60823924  0.28393640     0.98500
O4244       O  0.81680852  0.72712907  0.27654935    -0.62700
O4245       O  0.71957352  0.70503726  0.32492347    -0.57500
O4246       O  0.76240992  0.68853687  0.28457106    -0.94100
O4247       O  0.72700333  0.68260425  0.30077598    -0.92600
O4248       O  0.80008102  0.77824857  0.32873753    -0.92900
O4249       O  0.83924759  0.78879381  0.30644255    -0.91700
C4250       C  0.73772691  0.68746725  0.28834046     1.17300
H4251       H  0.77367067  0.71442617  0.34386483     0.33300
H4252       H  0.86012285  0.73782690  0.30429598     0.44100
H4253       H  0.74270525  0.63118246  0.30134389     0.37700
H4254       H  0.81810094  0.62774120  0.34001934     0.34100
H4255       H  0.87926878  0.80777553  0.32977127     0.25900
H4256       H  0.86448743  0.63227465  0.31311186     0.31900
H4257       H  0.78599389  0.55684843  0.31540087     0.37800
H4258       H  0.78456122  0.77099502  0.32174597     0.32200
H4259       H  0.69774718  0.68932397  0.32713509     0.31100
H4260       H  0.69040363  0.61999545  0.31058819     0.32800
H4261       H  0.71416116  0.57160629  0.30917055     0.31800
H4262       H  0.83709181  0.77701806  0.29804486     0.35800
H4263       H  0.83806450  0.74432732  0.27786077     0.28500
H4264       H  0.78744296  0.63962668  0.37608131     0.32700
H4265       H  0.75418980  0.57438709  0.34569703     0.35600
H4266       H  0.72731009  0.71641865  0.33344110     0.28200
H4267       H  0.81788503  0.71626492  0.26830486     0.41100
H4268       H  0.91239628  0.74446449  0.32382151     0.31100
H4269       H  0.88860037  0.78067200  0.33090690     0.38700
H4270       H  0.70951771  0.57209648  0.32500970     0.30600
H4271       H  0.88839113  0.64930345  0.32418863     0.30700
H4272       H  0.79547745  0.61880386  0.36659409     0.30900
C4273       C  0.79195903  0.44908344  0.52110207     0.80100
N4274       N  0.81911218  0.45866934  0.51464657    -0.78200
C4275       C  0.82935027  0.48086571  0.50359417     0.82600
N4276       N  0.81210622  0.49391256  0.49901013    -0.78100
C4277       C  0.78443509  0.48399135  0.50536736     0.82700
N4278       N  0.77481935  0.46151659  0.51622558    -0.79900
C4279       C  0.63303233  0.58401649  0.45203060     0.80100
N4280       N  0.60606144  0.57800353  0.45778643    -0.78200
C4281       C  0.59585642  0.56150286  0.47035446     0.82600
N4282       N  0.61280671  0.55074573  0.47715874    -0.78100
C4283       C  0.63998262  0.55710390  0.47147582     0.82700
N4284       N  0.64964254  0.57335731  0.45895337    -0.79900
C4285       C  0.58997753  0.69868365  0.53020381     0.80100
N4286       N  0.61761553  0.71392244  0.52350564    -0.78200
C4287       C  0.62166652  0.70378141  0.51132078     0.82600
N4288       N  0.59770586  0.67829010  0.50575232    -0.78100
C4289       C  0.56997532  0.66272320  0.51249041     0.82700
N4290       N  0.56618729  0.67298448  0.52473585    -0.79900
C4291       C  0.86278156  0.86293565  0.44586991     0.80100
N4292       N  0.83612990  0.84129930  0.45254283    -0.78200
C4293       C  0.82765801  0.84794643  0.46458689     0.82600
N4294       N  0.84639870  0.87722207  0.46996861    -0.78100
C4295       C  0.87323811  0.89936095  0.46328103     0.82700
N4296       N  0.88128581  0.89222676  0.45112349    -0.79900
C4297       C  0.95153983  0.87953703  0.53955294     0.80100
N4298       N  0.94415533  0.85285312  0.53229590    -0.78200
C4299       C  0.93327500  0.85101036  0.51957729     0.82600
N4300       N  0.93069154  0.87654394  0.51406460    -0.78100
C4301       C  0.93810355  0.90323780  0.52123889     0.82700
N4302       N  0.94887100  0.90486186  0.53390785    -0.79900
C4303       C  0.48772129  0.68744096  0.43862012     0.80100
N4304       N  0.48996682  0.71301956  0.44543210    -0.78200
C4305       C  0.49267692  0.71359697  0.45921548     0.82600
N4306       N  0.49302302  0.68811508  0.46623494    -0.78100
C4307       C  0.49165282  0.66295971  0.45948445     0.82700
N4308       N  0.48876230  0.66256309  0.44574993    -0.79900
Zr4309     Zr  0.91355875  0.97698481  0.49773460     2.17500
O4310       O  0.88028937  0.94040622  0.51678604    -0.51400
O4311       O  0.88743137  0.93550128  0.48127340    -0.74600
O4312       O  0.86721787  0.98068553  0.49963325    -0.81400
O4313       O  0.97107788  0.95624924  0.51196499    -0.83200
O4314       O  0.87440135  0.52008574  0.49066581    -0.78800
O4315       O  0.92032160  0.93435687  0.50926891    -0.90400
O4316       O  0.91737635  0.95126935  0.46169076    -0.76400
O4317       O  0.91535427  0.49966084  0.47646020    -0.85900
O4318       O  0.95465670  0.97840916  0.48500187    -0.85600
O4319       O  0.92965315  0.52918216  0.50282860    -0.72300
O4320       O  0.96838137  0.50709684  0.50732978    -0.84500
Zr4321     Zr  0.51618144  0.58528506  0.47933387     2.26400
Zr4322     Zr  0.92664009  0.55391542  0.48125331     2.06300
Zr4323     Zr  0.99904121  0.00730117  0.49790077     2.10000
Zr4324     Zr  0.95858603  0.00675739  0.46357989     1.78800
O4325       O  0.53532654  0.02170013  0.51373302    -0.93300
O4326       O  0.91450665  0.49862891  0.44534087    -0.41100
O4327       O  0.00168306  0.53383939  0.46995583    -0.77700
O4328       O  0.96387620  0.55627150  0.46515358    -0.96400
O4329       O  0.97489979  0.58603771  0.49095508    -0.89700
O4330       O  0.51578479  0.55876071  0.50081589    -0.92500
C4331       C  0.89384100  0.93071835  0.46913861     1.01200
C4332       C  0.94326148  0.93331794  0.51385770     1.14100
C4333       C  0.86033487  0.49244081  0.49784462     1.04900
O4334       O  0.89662320  0.54499683  0.46110779    -0.94700
O4335       O  0.95051958  0.60951908  0.47057526    -0.90400
O4336       O  0.50799316  0.62685381  0.46756592    -0.83600
C4337       C  0.97688998  0.63120761  0.46546460     1.11600
O4338       O  0.95087035  0.53541319  0.53383730    -0.96700
Zr4339     Zr  0.97849203  0.56096964  0.51193869     1.88900
O4340       O  0.54772097  0.62657597  0.49490682    -0.73300
O4341       O  0.90952433  0.58873844  0.49119645    -0.52600
O4342       O  0.95735177  0.59335912  0.52065304    -0.97300
O4343       O  0.50916187  0.55540586  0.53328437    -0.54500
O4344       O  0.52210787  0.61514825  0.51556141    -0.73800
C4345       C  0.54489508  0.63316366  0.50724026     0.98500
O4346       O  0.55631369  0.62064885  0.46212746    -0.62700
O4347       O  0.01089809  0.96667905  0.48969602    -0.57500
O4348       O  0.55742756  0.57555625  0.47262182    -0.94100
O4349       O  0.55174203  0.53046020  0.48506463    -0.92600
O4350       O  0.98322925  0.97698578  0.45587301    -0.92900
O4351       O  0.97559104  0.52602568  0.43812190    -0.91700
C4352       C  0.56658038  0.55549306  0.47645607     1.17300
H4353       H  0.95076577  0.95640201  0.48370378     0.33300
H4354       H  0.96366492  0.56748894  0.45663848     0.44100
H4355       H  0.53558449  0.56904555  0.50462693     0.37700
H4356       H  0.91474236  0.52774260  0.50949575     0.34100
H4357       H  0.92851553  0.99331853  0.43834062     0.25900
H4358       H  0.89032053  0.58319037  0.48678368     0.31900
H4359       H  0.46683363  0.61327798  0.51829936     0.37800
H4360       H  0.00487803  0.99109385  0.45785844     0.32200
H4361       H  0.53453221  0.97542677  0.49014590     0.31100
H4362       H  0.55191125  0.01801032  0.51060045     0.32800
H4363       H  0.53053541  0.56971857  0.52988465     0.31800
H4364       H  0.97259970  0.54517937  0.43657319     0.35800
H4365       H  0.54612234  0.61876780  0.45340518     0.28500
H4366       H  0.85918413  0.93117485  0.51389187     0.32700
H4367       H  0.96019120  0.55266564  0.54046629     0.35600
H4368       H  0.02599885  0.96688329  0.49599968     0.28200
H4369       H  0.56389188  0.64357404  0.46460685     0.41100
H4370       H  0.90704923  0.56619538  0.45549748     0.31100
H4371       H  0.91069761  0.00419920  0.44794807     0.38700
H4372       H  0.50553882  0.53269213  0.53292146     0.30600
H4373       H  0.90337623  0.57997398  0.50085209     0.30700
H4374       H  0.88247836  0.95534160  0.52401718     0.30900
C4375       C  0.77445876  0.82330247  0.77076645     0.80100
N4376       N  0.78211692  0.85251402  0.77601149    -0.78200
C4377       C  0.78584894  0.85609747  0.78959313     0.82600
N4378       N  0.78229816  0.83048676  0.79791851    -0.78100
C4379       C  0.77480572  0.80121231  0.79285792     0.82700
N4380       N  0.77082520  0.79745036  0.77918674    -0.79900
C4381       C  0.90019535  0.60909662  0.84743924     0.80100
N4382       N  0.89496122  0.58477935  0.83899735    -0.78200
C4383       C  0.87891303  0.58066841  0.82755015     0.82600
N4384       N  0.86786565  0.60114960  0.82472358    -0.78100
C4385       C  0.87293306  0.62550613  0.83301204     0.82700
N4386       N  0.88892604  0.62925946  0.84436390    -0.79900
C4387       C  0.68180879  0.55315830  0.77885035     0.80100
N4388       N  0.70419196  0.58037889  0.78423573    -0.78200
C4389       C  0.70134679  0.58615261  0.79750110     0.82600
N4390       N  0.67667020  0.56409691  0.80551656    -0.78100
C4391       C  0.65464582  0.53641598  0.80021344     0.82700
N4392       N  0.65728271  0.53126230  0.78688742    -0.79900
C4393       C  0.92223190  0.86124264  0.86853272     0.80100
N4394       N  0.95129574  0.87960125  0.86338579    -0.78200
C4395       C  0.96064492  0.87140497  0.85192248     0.82600
N4396       N  0.94047486  0.84429100  0.84557612    -0.78100
C4397       C  0.91138765  0.82567367  0.85073727     0.82700
N4398       N  0.90226406  0.83445745  0.86209195    -0.79900
C4399       C  0.64510064  0.65641598  0.86504280     0.80100
N4400       N  0.62774704  0.66649233  0.85843271    -0.78200
C4401       C  0.63516433  0.68027972  0.84540504     0.82600
N4402       N  0.66033388  0.68334113  0.83867411    -0.78100
C4403       C  0.67782632  0.67287119  0.84523272     0.82700
N4404       N  0.67003271  0.65969898  0.85836969    -0.79900
C4405       C  0.97971301  0.78257087  0.78042431     0.80100
N4406       N  0.99981996  0.77702096  0.78718764    -0.78200
C4407       C  0.99302895  0.76194374  0.79997558     0.82600
N4408       N  0.96509446  0.75178769  0.80608830    -0.78100
C4409       C  0.94476667  0.75764421  0.79936518     0.82700
N4410       N  0.95230590  0.77297337  0.78657007    -0.79900
Zr4411     Zr  0.75668446  0.69654675  0.81116043     2.17500
O4412       O  0.72073596  0.69395569  0.79436813    -0.51400
O4413       O  0.71411112  0.68775792  0.82641411    -0.74600
O4414       O  0.72628758  0.64169133  0.80275498    -0.81400
O4415       O  0.79430636  0.78837413  0.81197799    -0.83200
O4416       O  0.74655564  0.60964311  0.80891600    -0.78800
O4417       O  0.76421595  0.74672362  0.79877840    -0.90400
O4418       O  0.72439153  0.67495319  0.84759692    -0.76400
O4419       O  0.75890504  0.65911668  0.82785020    -0.85900
O4420       O  0.77452947  0.72603924  0.83134377    -0.85600
O4421       O  0.79106722  0.68088631  0.80130660    -0.72300
O4422       O  0.80639516  0.74194795  0.80492601    -0.84500
Zr4423     Zr  0.86174303  0.71997114  0.83249983     2.26400
Zr4424     Zr  0.79451697  0.64507756  0.81865405     2.06300
Zr4425     Zr  0.82409816  0.77094403  0.82514422     2.10000
Zr4426     Zr  0.77703371  0.68856255  0.84782904     1.78800
O4427       O  0.85955284  0.82317010  0.81276570    -0.93300
O4428       O  0.74927820  0.63303954  0.85888031    -0.41100
O4429       O  0.82684429  0.73466598  0.84231844    -0.77700
O4430       O  0.81240716  0.67339420  0.83912738    -0.96400
O4431       O  0.84378835  0.69054273  0.81243710    -0.89700
O4432       O  0.85931495  0.75692068  0.81566349    -0.92500
C4433       C  0.70704993  0.67863493  0.83919986     1.01200
C4434       C  0.77720534  0.77691625  0.80183818     1.14100
C4435       C  0.72622148  0.61430042  0.80347758     1.04900
O4436       O  0.77062290  0.59709192  0.83497239    -0.94700
O4437       O  0.83376924  0.63197759  0.82401050    -0.90400
O4438       O  0.87054427  0.67384663  0.83525489    -0.83600
C4439       C  0.85830943  0.64516599  0.83054594     1.11600
O4440       O  0.82335872  0.73009762  0.77300460    -0.96700
Zr4441     Zr  0.84109763  0.72702782  0.79574316     1.88900
O4442       O  0.90763616  0.73840990  0.81797396    -0.73300
O4443       O  0.79911622  0.61529304  0.79991102    -0.52600
O4444       O  0.84595679  0.68904777  0.78124421    -0.97300
O4445       O  0.86614818  0.78150998  0.78361832    -0.54500
O4446       O  0.89449697  0.74394523  0.79631841    -0.73800
C4447       C  0.91374919  0.74581331  0.80504347     0.98500
O4448       O  0.88334043  0.71579552  0.85406882    -0.62700
O4449       O  0.80746171  0.79820254  0.84080341    -0.57500
O4450       O  0.89325592  0.77450592  0.84096960    -0.94100
O4451       O  0.86578193  0.80060084  0.83974663    -0.92600
O4452       O  0.77295936  0.72393274  0.86412203    -0.92900
O4453       O  0.79473468  0.68445753  0.87042038    -0.91700
C4454       C  0.88885230  0.79849515  0.84331793     1.17300
H4455       H  0.76200384  0.73464506  0.83454161     0.33300
H4456       H  0.81444105  0.65919369  0.84600443     0.44100
H4457       H  0.87893187  0.77645517  0.81376682     0.37700
H4458       H  0.78308694  0.66937894  0.79311367     0.34100
H4459       H  0.73426398  0.63343805  0.86532692     0.25900
H4460       H  0.82121490  0.62550056  0.79780661     0.31900
H4461       H  0.86086803  0.68439544  0.78568146     0.37800
H4462       H  0.75911041  0.73076438  0.86007456     0.32200
H4463       H  0.80990070  0.79061477  0.85007772     0.31100
H4464       H  0.85832718  0.84011731  0.81791030     0.32800
H4465       H  0.88817422  0.79055414  0.78464835     0.31800
H4466       H  0.81708806  0.69875424  0.86941432     0.35800
H4467       H  0.90554300  0.73072339  0.85259391     0.28500
H4468       H  0.70045267  0.67648604  0.79809004     0.32700
H4469       H  0.84002509  0.73382444  0.76646301     0.35600
H4470       H  0.82339158  0.82177553  0.83974861     0.28200
H4471       H  0.87677681  0.72652735  0.86069754     0.41100
H4472       H  0.77598384  0.58131308  0.83128329     0.31100
H4473       H  0.73693949  0.61897228  0.85163546     0.38700
H4474       H  0.86095534  0.79502327  0.78929001     0.30600
H4475       H  0.79288228  0.59305022  0.80409888     0.30700
H4476       H  0.72494566  0.68505505  0.78616859     0.30900
Zr4477     Zr  0.97735326  0.53712732  0.96268668     2.17500
O4478       O  0.49868728  0.50540095  0.94702126    -0.51400
O4479       O  0.96195974  0.56262633  0.94498177    -0.74600
O4480       O  0.94616230  0.98182812  0.95090916    -0.81400
O4481       O  0.55768494  0.59586611  0.97054462    -0.83200
O4482       O  0.90529730  0.94979528  0.96546649    -0.78800
O4483       O  0.52915349  0.56283782  0.95407184    -0.90400
O4484       O  0.93643935  0.58485833  0.95490543    -0.76400
O4485       O  0.92871695  0.52679388  0.97048163    -0.85900
O4486       O  0.98597916  0.58714622  0.97156593    -0.85600
O4487       O  0.95907678  0.49088948  0.97914472    -0.72300
O4488       O  0.50952736  0.53019687  0.98073631    -0.84500
Zr4489     Zr  0.95375682  0.54177475  0.01438156     2.26400
Zr4490     Zr  0.91856631  0.97339074  0.98764031     2.06300
Zr4491     Zr  0.52395568  0.58079270  0.99109921     2.10000
Zr4492     Zr  0.93744102  0.57652322  0.97963603     1.78800
O4493       O  0.56931114  0.58072365  0.99858506    -0.93300
O4494       O  0.90393440  0.05981586  0.98053583    -0.41100
O4495       O  0.97161732  0.58757394  0.99778532    -0.77700
O4496       O  0.93177025  0.02387523  0.99800890    -0.96400
O4497       O  0.95121644  0.97657009  0.00556152    -0.89700
O4498       O  0.49877701  0.53359157  0.00706661    -0.92500
C4499       C  0.94711951  0.57802412  0.94437622     1.01200
C4500       C  0.55414159  0.58539400  0.95842165     1.14100
C4501       C  0.91913474  0.95770462  0.95359525     1.04900
O4502       O  0.87125532  0.97079422  0.98163689    -0.94700
O4503       O  0.88579298  0.95596968  0.00817845    -0.90400
O4504       O  0.91438910  0.98938456  0.02451674    -0.83600
C4505       C  0.88959090  0.96604610  0.02030175     1.11600
O4506       O  0.50025315  0.45432341  0.98206673    -0.96700
Zr4507     Zr  0.48358140  0.48315338  0.99676457     1.88900
O4508       O  0.96725628  0.51341248  0.03177912    -0.73300
O4509       O  0.89612151  0.91409746  0.99226264    -0.52600
O4510       O  0.48168825  0.93988810  0.00270952    -0.97300
O4511       O  0.53423342  0.49295546  0.00136578    -0.54500
O4512       O  0.48154805  0.47080928  0.02119870    -0.73800
C4513       C  0.47398529  0.48011610  0.03190728     0.98500
O4514       O  0.93395622  0.56507368  0.03057600    -0.62700
O4515       O  0.03642073  0.65549388  0.98471099    -0.57500
O4516       O  0.98860247  0.59003219  0.02567442    -0.94100
O4517       O  0.53242047  0.60640212  0.01296053    -0.92600
O4518       O  0.96207071  0.63605205  0.97514197    -0.92900
O4519       O  0.91529497  0.60108656  0.99380242    -0.91700
C4520       C  0.01322618  0.61729518  0.02259178     1.17300
H4521       H  0.99467271  0.60512339  0.96457120     0.33300
H4522       H  0.91396669  0.02290875  0.00201615     0.44100
H4523       H  0.51157955  0.53627127  0.01462889     0.37700
H4524       H  0.95932998  0.95657487  0.97435211     0.34100
H4525       H  0.90571705  0.07918223  0.97515336     0.25900
H4526       H  0.87552193  0.90444129  0.98868482     0.31900
H4527       H  0.49611697  0.93679209  0.00837154     0.37800
H4528       H  0.97607683  0.64522143  0.98268579     0.32200
H4529       H  0.57160377  0.64796080  0.98813308     0.31100
H4530       H  0.57704553  0.59643700  0.00587860     0.32800
H4531       H  0.53813155  0.50093393  0.01070370     0.31800
H4532       H  0.92579400  0.60461714  0.00251807     0.35800
H4533       H  0.91479466  0.56178934  0.02680280     0.28500
H4534       H  0.49211602  0.50829805  0.93783280     0.32700
H4535       H  0.50584845  0.46727730  0.97312124     0.35600
H4536       H  0.03358580  0.65772568  0.97480679     0.28200
H4537       H  0.92771733  0.55029372  0.03904994     0.41100
H4538       H  0.85581998  0.94704666  0.98269257     0.31100
H4539       H  0.89410751  0.04149255  0.97442131     0.38700
H4540       H  0.54808800  0.51253367  0.99526523     0.30600
H4541       H  0.90737886  0.90769999  0.98594981     0.30700
H4542       H  0.48735281  0.48131149  0.94934218     0.30900
Zr4543     Zr  0.64388950  0.87505884  0.68111217     2.17500
O4544       O  0.63014121  0.83498128  0.70066478    -0.51400
O4545       O  0.66134418  0.92200810  0.69515555    -0.74600
O4546       O  0.68708125  0.87317810  0.68995293    -0.81400
O4547       O  0.56232878  0.85852547  0.68072200    -0.83200
O4548       O  0.71981981  0.87951661  0.67242592    -0.78800
O4549       O  0.59776252  0.85835845  0.69455241    -0.90400
O4550       O  0.67358846  0.96718260  0.68121689    -0.76400
O4551       O  0.68648330  0.91814266  0.66819205    -0.85900
O4552       O  0.62601185  0.90886184  0.67096635    -0.85600
O4553       O  0.65762461  0.84717915  0.66495676    -0.72300
O4554       O  0.60202915  0.83934894  0.66791242    -0.84500
Zr4555     Zr  0.64139932  0.89133152  0.62799715     2.26400
Zr4556     Zr  0.69987103  0.89103758  0.65161381     2.06300
Zr4557     Zr  0.58492863  0.87396474  0.65745044     2.10000
Zr4558     Zr  0.66836163  0.95157176  0.65780467     1.78800
O4559       O  0.53469464  0.82547954  0.65666680    -0.93300
O4560       O  0.72256590  0.99096062  0.65800465    -0.41100
O4561       O  0.62666133  0.91812341  0.64408462    -0.77700
O4562       O  0.68349509  0.92640196  0.64112377    -0.96400
O4563       O  0.65867656  0.85678375  0.63795111    -0.89700
O4564       O  0.59906113  0.84792501  0.64088387    -0.92500
C4565       C  0.67012308  0.95279841  0.69312183     1.01200
C4566       C  0.57129310  0.85403511  0.69242169     1.14100
C4567       C  0.71128879  0.87452455  0.68519511     1.04900
O4568       O  0.74873101  0.94106803  0.65317627    -0.94700
O4569       O  0.72106954  0.90243986  0.62800134    -0.90400
O4570       O  0.68589219  0.90340069  0.61416536    -0.83600
C4571       C  0.71177943  0.90608243  0.61624009     1.11600
O4572       O  0.60423477  0.77080498  0.66913861    -0.96700
Zr4573     Zr  0.61635205  0.81377079  0.65100991     1.88900
O4574       O  0.62310447  0.84525067  0.61383976    -0.73300
O4575       O  0.72291348  0.85792989  0.64642658    -0.52600
O4576       O  0.64070831  0.78145173  0.64694321    -0.97300
O4577       O  0.56213615  0.77347998  0.65189427    -0.54500
O4578       O  0.60856817  0.79860626  0.62734871    -0.73800
C4579       C  0.61291764  0.81423433  0.61559195     0.98500
O4580       O  0.65460933  0.93534107  0.61018436    -0.62700
O4581       O  0.56535814  0.91056231  0.66202469    -0.57500
O4582       O  0.59695621  0.88938812  0.61867325    -0.94100
O4583       O  0.56298705  0.87968870  0.63625093    -0.92600
O4584       O  0.64674064  0.98698178  0.66064152    -0.92900
O4585       O  0.67999305  0.99395558  0.63949958    -0.91700
C4586       C  0.57148652  0.88496273  0.62347454     1.17300
H4587       H  0.61874788  0.91772047  0.67783172     0.33300
H4588       H  0.69967235  0.94343049  0.63518890     0.44100
H4589       H  0.58244147  0.83552379  0.63508743     0.37700
H4590       H  0.66363784  0.83296534  0.66969924     0.34100
H4591       H  0.72380581  0.01232595  0.65939052     0.25900
H4592       H  0.74391002  0.87048160  0.64953193     0.31900
H4593       H  0.66086940  0.79749541  0.64260962     0.37800
H4594       H  0.62757655  0.97311782  0.66618181     0.32200
H4595       H  0.57748960  0.93026312  0.65567626     0.31100
H4596       H  0.52047976  0.83286969  0.65957724     0.32800
H4597       H  0.55384438  0.77989610  0.64400331     0.31800
H4598       H  0.69125575  0.98989365  0.63223267     0.35800
H4599       H  0.64351676  0.94653628  0.61303580     0.28500
H4600       H  0.64308643  0.84736970  0.70813191     0.32700
H4601       H  0.59274714  0.74965495  0.66477180     0.35600
H4602       H  0.54475024  0.89975746  0.65841567     0.28200
H4603       H  0.67615424  0.95174779  0.61143850     0.41100
H4604       H  0.75094879  0.95503243  0.64481075     0.31100
H4605       H  0.72905603  0.98532797  0.66672590     0.38700
H4606       H  0.55369319  0.77838412  0.66005701     0.30600
H4607       H  0.71259993  0.83819729  0.65292543     0.30700
H4608       H  0.63747775  0.81996747  0.69806043     0.30900
C4609       C  0.00867991  0.80302479  0.74327286    -0.22600
C4610       C  0.00320749  0.82872616  0.73966033     0.09400
C4611       C  0.98801217  0.83786247  0.74910094     0.09800
C4612       C  0.98007038  0.82204781  0.76235702    -0.17500
C4613       C  0.98710407  0.79745500  0.76622648    -0.27900
C4614       C  0.00075782  0.78714126  0.75640231     0.18100
C4615       C  0.01564652  0.84627104  0.72610432     0.12100
C4616       C  0.98005774  0.86391509  0.74514188    -0.12300
H4617       H  0.96891021  0.82933513  0.76979694     0.12400
C4618       C  0.00638979  0.75889436  0.75949272    -0.23100
H4619       H  0.53313772  0.77921380  0.74333043     0.08000
C4620       C  0.54508245  0.84850814  0.72902810     0.04400
C4621       C  0.56085400  0.86086472  0.71628409    -0.20300
C4622       C  0.55018530  0.84307822  0.70454738    -0.12600
C4623       C  0.52201465  0.81311705  0.70541709     0.13100
C4624       C  0.00012119  0.83121426  0.71450260    -0.23100
C4625       C  0.55840051  0.86712258  0.74158034    -0.06100
H4626       H  0.58250291  0.88371024  0.71560281     0.14600
C4627       C  0.99742274  0.81914835  0.68994008    -0.16300
H4628       H  0.97683311  0.81107793  0.71579744     0.08900
H4629       H  0.02398922  0.76555509  0.76716535     0.06800
H4630       H  0.01464591  0.75249168  0.75019883     0.08000
H4631       H  0.98495787  0.73664868  0.76341981     0.07000
H4632       H  0.96510063  0.85622197  0.73632019     0.01900
H4633       H  0.00091872  0.88769004  0.74216997     0.02400
H4634       H  0.96792271  0.86787120  0.75372628     0.05900
H4635       H  0.58000132  0.89054892  0.73900860     0.04900
H4636       H  0.56318522  0.85187108  0.74903962    -0.00900
H4637       H  0.54212275  0.87316076  0.74646698     0.00600
H4638       H  0.98821554  0.79252242  0.69274415     0.04200
H4639       H  0.52414606  0.80098786  0.68413502     0.06200
H4640       H  0.97815590  0.82341362  0.68813560     0.07000
C4641       C  0.55907757  0.74790822  0.81801489    -0.22600
C4642       C  0.54981291  0.71580681  0.82322923     0.09400
C4643       C  0.02562137  0.71346933  0.81774532     0.09800
C4644       C  0.00507903  0.72282310  0.81271823    -0.17500
C4645       C  0.01533678  0.75437341  0.80637483    -0.27900
C4646       C  0.53801188  0.75641575  0.81306845     0.18100
C4647       C  0.57326129  0.70829558  0.82820536     0.12100
C4648       C  0.01359017  0.67967839  0.82477816    -0.12300
H4649       H  0.98092342  0.70520883  0.81352897     0.12400
C4650       C  0.54934436  0.79162945  0.80784457    -0.23100
H4651       H  0.58302618  0.76630478  0.81767136     0.08000
C4652       C  0.58537328  0.69304145  0.82013280     0.04400
C4653       C  0.60655253  0.68524739  0.82571336    -0.20300
C4654       C  0.61603421  0.69268174  0.83913218    -0.12600
C4655       C  0.60533593  0.71010137  0.84679369     0.13100
C4656       C  0.58407404  0.71751351  0.84122781    -0.23100
C4657       C  0.57615621  0.68531678  0.80562279    -0.06100
H4658       H  0.61505337  0.67249594  0.81973243     0.14600
C4659       C  0.61666091  0.72177586  0.86074501    -0.16300
H4660       H  0.57543554  0.73022977  0.84715678     0.08900
H4661       H  0.54656525  0.79323083  0.79666489     0.06800
H4662       H  0.57386289  0.80774778  0.80956743     0.08000
H4663       H  0.04854511  0.82403884  0.80447779     0.07000
H4664       H  0.51461197  0.65980049  0.84163945     0.01900
H4665       H  0.02229493  0.66580901  0.81925579     0.02400
H4666       H  0.98837659  0.66516316  0.82510377     0.05900
H4667       H  0.58792720  0.67369692  0.80069610     0.04900
H4668       H  0.58205609  0.70842738  0.79945939    -0.00900
H4669       H  0.55133779  0.66814632  0.80545569     0.00600
H4670       H  0.60843470  0.73805258  0.86443828     0.04200
H4671       H  0.64187492  0.73605882  0.86023942     0.06200
H4672       H  0.60837621  0.70054785  0.86842988     0.07000
C4673       C  0.65058135  0.64178243  0.90341427    -0.22600
C4674       C  0.61982202  0.62507438  0.90766291     0.09400
C4675       C  0.59751390  0.61666360  0.89786109     0.09800
C4676       C  0.60657752  0.62620606  0.88399936    -0.17500
C4677       C  0.63742409  0.64385015  0.87964344    -0.27900
C4678       C  0.65978127  0.65124585  0.88949397     0.18100
C4679       C  0.61099127  0.61785665  0.92245406     0.12100
C4680       C  0.56411009  0.59820410  0.90206272    -0.12300
H4681       H  0.58940570  0.62027792  0.87652038     0.12400
C4682       C  0.69331383  0.67032766  0.88562206    -0.23100
H4683       H  0.66742531  0.64799107  0.91107380     0.08000
C4684       C  0.60185254  0.58658446  0.92889881     0.04400
C4685       C  0.58632032  0.57789820  0.94175119    -0.20300
C4686       C  0.57982177  0.59982470  0.94822918    -0.12600
C4687       C  0.59183406  0.63232199  0.94242930     0.13100
C4688       C  0.60745389  0.64104051  0.92955028    -0.23100
C4689       C  0.60706399  0.56187589  0.92189593    -0.06100
H4690       H  0.57708615  0.55298464  0.94627967     0.14600
C4691       C  0.08705207  0.67729070  0.95230905    -0.16300
H4692       H  0.61492409  0.66517587  0.92454368     0.08900
H4693       H  0.69934128  0.65603678  0.87882163     0.06800
H4694       H  0.70725738  0.67519576  0.89475774     0.08000
H4695       H  0.69942589  0.69448679  0.88033944     0.07000
H4696       H  0.55894409  0.61256427  0.90921470     0.01900
H4697       H  0.55774622  0.57387264  0.90722589     0.02400
H4698       H  0.54977686  0.59384037  0.89309391     0.05900
H4699       H  0.59841601  0.53855225  0.92838849     0.04900
H4700       H  0.63177729  0.57229964  0.91971101    -0.00900
H4701       H  0.59529832  0.55592695  0.91211004     0.00600
H4702       H  0.10037400  0.70341382  0.94820887     0.04200
H4703       H  0.09453249  0.67576030  0.96278266     0.06200
H4704       H  0.06270272  0.67011231  0.95280847     0.07000
C4705       C  0.87943384  0.88224696  0.89474319    -0.22600
C4706       C  0.89950343  0.89147960  0.90543387     0.09400
C4707       C  0.92644521  0.88998553  0.90405543     0.09800
C4708       C  0.93280622  0.87947963  0.89195980    -0.17500
C4709       C  0.91294876  0.87037438  0.88119328    -0.27900
C4710       C  0.88580922  0.87162235  0.88258102     0.18100
C4711       C  0.89394274  0.90556855  0.91758252     0.12100
C4712       C  0.94903511  0.90041389  0.91517892    -0.12300
H4713       H  0.95355914  0.87850173  0.89086503     0.12400
C4714       C  0.86426629  0.86330541  0.87110450    -0.23100
H4715       H  0.85908175  0.88399416  0.89583604     0.08000
C4716       C  0.90213137  0.93905770  0.91704894     0.04400
C4717       C  0.90692261  0.95481035  0.92929305    -0.20300
C4718       C  0.90395371  0.93782716  0.94197968    -0.12600
C4719       C  0.89212884  0.90338156  0.94258566     0.13100
C4720       C  0.88693094  0.88753228  0.93029914    -0.23100
C4721       C  0.90808911  0.95877603  0.90357406    -0.06100
H4722       H  0.91533690  0.98111972  0.92890628     0.14600
C4723       C  0.88764378  0.88384674  0.95597893    -0.16300
H4724       H  0.88025671  0.86166996  0.93056620     0.08900
H4725       H  0.87657307  0.87890607  0.86166324     0.06800
H4726       H  0.84527333  0.86763115  0.87367520     0.08000
H4727       H  0.85422115  0.83691567  0.86908304     0.07000
H4728       H  0.93839215  0.88424021  0.92467012     0.01900
H4729       H  0.95685752  0.92636772  0.91735275     0.02400
H4730       H  0.48642455  0.87967030  0.91577532     0.05900
H4731       H  0.91517779  0.98479805  0.90515029     0.04900
H4732       H  0.88710612  0.94818078  0.89773580    -0.00900
H4733       H  0.92650649  0.95849524  0.89745046     0.00600
H4734       H  0.87084778  0.88549539  0.96277953     0.04200
H4735       H  0.90958158  0.89363987  0.96104595     0.06200
H4736       H  0.87900786  0.85737941  0.95447798     0.07000
C4737       C  0.55058115  0.92079802  0.84893816    -0.22600
C4738       C  0.55073049  0.93079623  0.83516992     0.09400
C4739       C  0.52383041  0.91493684  0.82797653     0.09800
C4740       C  0.99441890  0.89881202  0.83115207    -0.17500
C4741       C  0.99138498  0.89394053  0.84552219    -0.27900
C4742       C  0.01728586  0.91185007  0.85330980     0.18100
C4743       C  0.57919010  0.95769745  0.82827223     0.12100
C4744       C  0.52307063  0.92485202  0.81313938    -0.12300
H4745       H  0.97465241  0.88548762  0.82515580     0.12400
C4746       C  0.01592524  0.90744581  0.86874417    -0.23100
H4747       H  0.57151767  0.93273396  0.85429193     0.08000
C4748       C  0.58949430  0.99116806  0.83023992     0.04400
C4749       C  0.61453854  0.01574273  0.82221287    -0.20300
C4750       C  0.62891409  0.00758448  0.81199709    -0.12600
C4751       C  0.61898768  0.97389656  0.81033803     0.13100
C4752       C  0.59456961  0.94948647  0.81866711    -0.23100
C4753       C  0.07277087  0.01136224  0.83450947    -0.06100
H4754       H  0.62215156  0.04145828  0.82354251     0.14600
C4755       C  0.63396678  0.96324913  0.79992374    -0.16300
H4756       H  0.58656760  0.92368508  0.81732355     0.08900
H4757       H  0.03880543  0.92140454  0.87293648     0.06800
H4758       H  0.00633871  0.88099214  0.87203078     0.08000
H4759       H  0.00178946  0.91676254  0.87327296     0.07000
H4760       H  0.53862448  0.92033283  0.80672196     0.01900
H4761       H  0.53018979  0.95141819  0.81199568     0.02400
H4762       H  0.49996817  0.91059170  0.80920114     0.05900
H4763       H  0.08464190  0.03872550  0.83363782     0.04900
H4764       H  0.07116907  0.00332483  0.84551069    -0.00900
H4765       H  0.04956154  0.00188555  0.83077630     0.00600
H4766       H  0.62736751  0.43831936  0.80333138     0.04200
H4767       H  0.66081583  0.47821834  0.80369232     0.06200
H4768       H  0.62988556  0.96955301  0.78938348     0.07000
C4769       C  0.69272835  0.02384858  0.71663292    -0.22600
C4770       C  0.68143730  0.00628435  0.72934051     0.09400
C4771       C  0.66739461  0.97166275  0.73025370     0.09800
C4772       C  0.66467287  0.95521509  0.71833874    -0.17500
C4773       C  0.67543408  0.97245757  0.70538815    -0.27900
C4774       C  0.68987759  0.00755758  0.70460164     0.18100
C4775       C  0.68302582  0.02426389  0.74156444     0.12100
C4776       C  0.65512772  0.95204367  0.74383686    -0.12300
H4777       H  0.65344144  0.92854479  0.71919264     0.12400
C4778       C  0.70243892  0.02844681  0.69129672    -0.23100
H4779       H  0.71687104  0.54163770  0.71632018     0.08000
C4780       C  0.70891493  0.03813265  0.74949095     0.04400
C4781       C  0.70756407  0.05085095  0.76202311    -0.20300
C4782       C  0.68497467  0.54525113  0.76479154    -0.12600
C4783       C  0.66150815  0.53664656  0.75554389     0.13100
C4784       C  0.66258645  0.52252679  0.74343433    -0.23100
C4785       C  0.73735936  0.03817216  0.74498552    -0.06100
H4786       H  0.72680910  0.05993369  0.76851692     0.14600
C4787       C  0.63499695  0.54186724  0.75815015    -0.16300
H4788       H  0.64424306  0.51507399  0.73647395     0.08900
H4789       H  0.71407360  0.05520911  0.69291382     0.06800
H4790       H  0.70521902  0.52034798  0.68366296     0.08000
H4791       H  0.71934800  0.02345419  0.68632419     0.07000
H4792       H  0.63714718  0.95613902  0.74823943     0.01900
H4793       H  0.67375034  0.95987731  0.75105827     0.02400
H4794       H  0.64507800  0.92517845  0.74277556     0.05900
H4795       H  0.75539754  0.04960440  0.75245344     0.04900
H4796       H  0.74624047  0.05235990  0.73492403    -0.00900
H4797       H  0.73225948  0.01247853  0.74397873     0.00600
H4798       H  0.63371671  0.55710728  0.74941264     0.04200
H4799       H  0.63687000  0.55486248  0.76755399     0.06200
H4800       H  0.61360268  0.51767724  0.75908727     0.07000
C4801       C  0.93447611  0.63510584  0.88225456    -0.22600
C4802       C  0.92800645  0.60457865  0.88838353     0.09400
C4803       C  0.91503513  0.57646256  0.88073021     0.09800
C4804       C  0.90796981  0.57931239  0.86714340    -0.17500
C4805       C  0.91284381  0.60947812  0.86106947    -0.27900
C4806       C  0.92704163  0.63803209  0.86867232     0.18100
C4807       C  0.93464023  0.60214916  0.90290207     0.12100
C4808       C  0.90778346  0.54319691  0.88704576    -0.12300
H4809       H  0.89720231  0.55734184  0.86147877     0.12400
C4810       C  0.93485036  0.67170529  0.86263311    -0.23100
H4811       H  0.94491059  0.65659164  0.88822984     0.08000
C4812       C  0.96186626  0.60359237  0.90650940     0.04400
C4813       C  0.96551036  0.59660266  0.92020127    -0.20300
C4814       C  0.94268619  0.58858201  0.93045455    -0.12600
C4815       C  0.91594835  0.58890538  0.92688286     0.13100
C4816       C  0.91226049  0.59555689  0.91308955    -0.23100
C4817       C  0.98690509  0.61214166  0.89586946    -0.06100
H4818       H  0.98628548  0.59707610  0.92288925     0.14600
C4819       C  0.89067989  0.58092656  0.93732182    -0.16300
H4820       H  0.89144062  0.59464540  0.91013909     0.08900
H4821       H  0.94371135  0.18201002  0.87440432     0.06800
H4822       H  0.91388493  0.67275008  0.86088705     0.08000
H4823       H  0.94842628  0.67748377  0.85282869     0.07000
H4824       H  0.89145423  0.53602497  0.89597963     0.01900
H4825       H  0.92879744  0.54410602  0.89051963     0.02400
H4826       H  0.89748487  0.52373993  0.87964519     0.05900
H4827       H  0.00744051  0.09802289  0.89942467     0.04900
H4828       H  0.99595189  0.12507822  0.89138964    -0.00900
H4829       H  0.97851995  0.59430886  0.88777733     0.00600
H4830       H  0.88244000  0.55608634  0.94245269     0.04200
H4831       H  0.89894308  0.59969669  0.94504640     0.06200
H4832       H  0.87106750  0.58095601  0.93253375     0.07000
C4833       C  0.83731698  0.50830197  0.80483382    -0.22600
C4834       C  0.82717886  0.97641295  0.81604595     0.09400
C4835       C  0.84745134  0.98372863  0.82664995     0.09800
C4836       C  0.88856802  0.53636401  0.82045583    -0.17500
C4837       C  0.87108750  0.55192091  0.81918051    -0.27900
C4838       C  0.84555319  0.53806649  0.81077458     0.18100
C4839       C  0.81550519  0.94570189  0.80907249     0.12100
C4840       C  0.85860948  0.96058987  0.83113663    -0.12300
H4841       H  0.87309957  0.01850600  0.84122071     0.12400
C4842       C  0.82603057  0.55339293  0.80821499    -0.23100
H4843       H  0.81725861  0.49690769  0.79885635     0.08000
C4844       C  0.79007350  0.91627742  0.81454358     0.04400
C4845       C  0.78048606  0.88746614  0.80773473    -0.20300
C4846       C  0.79521619  0.88780785  0.79541190    -0.12600
C4847       C  0.81997139  0.91769530  0.78965227     0.13100
C4848       C  0.82989935  0.94637105  0.79664080    -0.23100
C4849       C  0.77288074  0.91540975  0.82741801    -0.06100
H4850       H  0.76138617  0.86450767  0.81203996     0.14600
C4851       C  0.83679902  0.91932894  0.77652496    -0.16300
H4852       H  0.86664207  0.47872608  0.78220831     0.08900
H4853       H  0.81574331  0.55492780  0.81805345     0.06800
H4854       H  0.80709829  0.53869680  0.80152884     0.08000
H4855       H  0.83988340  0.57828658  0.80292752     0.07000
H4856       H  0.87056234  0.95712145  0.82233933     0.01900
H4857       H  0.83925141  0.93629300  0.83492169     0.02400
H4858       H  0.87464597  0.97028228  0.83951823     0.05900
H4859       H  0.75335108  0.89034714  0.83017028     0.04900
H4860       H  0.76396977  0.93254153  0.82586364    -0.00900
H4861       H  0.78799759  0.92295855  0.83616288     0.00600
H4862       H  0.83060761  0.41498330  0.76157875     0.04200
H4863       H  0.84553818  0.90193711  0.77753959     0.06200
H4864       H  0.85644878  0.94442619  0.77396801     0.07000
C4865       C  0.73836927  0.80785120  0.73669494    -0.22600
C4866       C  0.76209843  0.83358447  0.72849178     0.09400
C4867       C  0.79137662  0.85097495  0.73358930     0.09800
C4868       C  0.79561534  0.84437503  0.74725970    -0.17500
C4869       C  0.77113019  0.82105104  0.75589518    -0.27900
C4870       C  0.74251198  0.80150551  0.75044069     0.18100
C4871       C  0.75396137  0.84689163  0.71629733     0.12100
C4872       C  0.81762165  0.87775817  0.72484282    -0.12300
H4873       H  0.81758330  0.85922335  0.75152959     0.12400
C4874       C  0.71577993  0.77614201  0.75939874    -0.23100
H4875       H  0.71589402  0.79474822  0.73270206     0.08000
C4876       C  0.74899146  0.83277214  0.70354406     0.04400
C4877       C  0.73709783  0.84399767  0.69305818    -0.20300
C4878       C  0.72945116  0.86837722  0.69529160    -0.12600
C4879       C  0.73599071  0.88357974  0.70789567     0.13100
C4880       C  0.74839275  0.87278156  0.71817014    -0.23100
C4881       C  0.75556185  0.80549227  0.70118765    -0.06100
H4882       H  0.73211535  0.83240163  0.68339549     0.14600
C4883       C  0.72980534  0.91106563  0.71065759    -0.16300
H4884       H  0.75254822  0.88360654  0.72800652     0.08900
H4885       H  0.69488317  0.76359422  0.75354936     0.06800
H4886       H  0.71122870  0.78813586  0.76790100     0.08000
H4887       H  0.72073461  0.75713507  0.76374215     0.07000
H4888       H  0.81287575  0.89775809  0.72179255     0.01900
H4889       H  0.82111457  0.86736783  0.71548866     0.02400
H4890       H  0.83902926  0.88871707  0.73038989     0.05900
H4891       H  0.75052344  0.79722529  0.69061986     0.04900
H4892       H  0.74143895  0.78401154  0.70852712    -0.00900
H4893       H  0.77992772  0.81426453  0.70272846     0.00600
H4894       H  0.70503480  0.90183225  0.71112816     0.04200
H4895       H  0.74112920  0.93120996  0.70245079     0.06200
H4896       H  0.73855062  0.92162451  0.72061444     0.07000
C4897       C  0.92640516  0.77278175  0.50657339    -0.22600
C4898       C  0.94084776  0.78479189  0.49354163     0.09400
C4899       C  0.94961053  0.81712328  0.48860382     0.09800
C4900       C  0.94506257  0.83743086  0.49713346    -0.17500
C4901       C  0.93201081  0.82617274  0.51051498    -0.27900
C4902       C  0.92163887  0.79301568  0.51513539     0.18100
C4903       C  0.94860865  0.76399727  0.48558459     0.12100
C4904       C  0.96464941  0.83048621  0.47451118    -0.12300
H4905       H  0.95318640  0.86280969  0.49353197     0.12400
C4906       C  0.90526759  0.77800882  0.52886638    -0.23100
H4907       H  0.91934494  0.74764596  0.51017809     0.08000
C4908       C  0.50502725  0.77005553  0.48760286     0.04400
C4909       C  0.50772372  0.74863814  0.47896584    -0.20300
C4910       C  0.49167942  0.73946891  0.46688996    -0.12600
C4911       C  0.93532603  0.72467331  0.46803687     0.13100
C4912       C  0.92846021  0.74423144  0.47601903    -0.23100
C4913       C  0.52265090  0.77944084  0.50042740    -0.06100
H4914       H  0.52213872  0.73861808  0.48176162     0.14600
C4915       C  0.91179180  0.70280146  0.45842446    -0.16300
H4916       H  0.90720043  0.74395711  0.47483423     0.08900
H4917       H  0.91913017  0.77091746  0.53528825     0.06800
H4918       H  0.88315895  0.75558423  0.52734242     0.08000
H4919       H  0.90021593  0.79471742  0.53449009     0.07000
H4920       H  0.94909686  0.81547665  0.46664238     0.01900
H4921       H  0.53633064  0.85004246  0.47957189     0.02400
H4922       H  0.97043594  0.85647552  0.47233663     0.05900
H4923       H  0.53701482  0.76791158  0.50153098     0.04900
H4924       H  0.50677267  0.77126230  0.50958365    -0.00900
H4925       H  0.53770662  0.80661453  0.50008665     0.00600
H4926       H  0.88997151  0.68660831  0.46432379     0.04200
H4927       H  0.91793134  0.68650456  0.45313451     0.06200
H4928       H  0.90826668  0.71827363  0.45054440     0.07000
C4929       C  0.01986802  0.90596080  0.59885567    -0.22600
C4930       C  0.01745733  0.88803245  0.58746970     0.09400
C4931       C  0.52780623  0.86482176  0.59141272     0.09800
C4932       C  0.54551075  0.86487455  0.60218979    -0.17500
C4933       C  0.55029179  0.88448003  0.61328801    -0.27900
C4934       C  0.53622607  0.90393023  0.61379495     0.18100
C4935       C  0.99842864  0.88767382  0.57626294     0.12100
C4936       C  0.52463277  0.84464866  0.57936045    -0.12300
H4937       H  0.55627340  0.84998558  0.60182090     0.12400
C4938       C  0.54110080  0.92685690  0.62495168    -0.23100
H4939       H  0.00693589  0.91851567  0.59944385     0.08000
C4940       C  0.96871488  0.86113083  0.57517088     0.04400
C4941       C  0.95348076  0.85943107  0.56314811    -0.20300
C4942       C  0.96757608  0.88361563  0.55227895    -0.12600
C4943       C  0.99737229  0.91041361  0.55351705     0.13100
C4944       C  0.01205091  0.91242597  0.56567273    -0.23100
C4945       C  0.95349220  0.83447640  0.58657840    -0.06100
H4946       H  0.93075074  0.83891749  0.56211291     0.14600
C4947       C  0.01549783  0.93605559  0.54200867    -0.16300
H4948       H  0.54008778  0.93196209  0.57196347     0.08900
H4949       H  0.02115641  0.92029280  0.62669687     0.06800
H4950       H  0.55004344  0.95227410  0.62030029     0.08000
H4951       H  0.55759001  0.92798222  0.63241171     0.07000
H4952       H  0.53384311  0.86103528  0.56982431     0.01900
H4953       H  0.01047044  0.83388843  0.57269547     0.02400
H4954       H  0.53715387  0.83104292  0.58065440     0.05900
H4955       H  0.93019251  0.81554311  0.58408474     0.04900
H4956       H  0.95189820  0.84549722  0.59611946    -0.00900
H4957       H  0.96684628  0.82200139  0.58843893     0.00600
H4958       H  0.53441191  0.96616406  0.55004483     0.04200
H4959       H  0.00426231  0.93115931  0.53213685     0.06200
H4960       H  0.54879239  0.93983961  0.54505635     0.07000
C4961       C  0.75252959  0.76969907  0.47518528    -0.22600
C4962       C  0.73892527  0.78240249  0.48354970     0.09400
C4963       C  0.75457293  0.81611749  0.48603117     0.09800
C4964       C  0.78360710  0.83668685  0.47987505    -0.17500
C4965       C  0.79742696  0.82433560  0.47127171    -0.27900
C4966       C  0.78160631  0.79007954  0.46899728     0.18100
C4967       C  0.70861857  0.75973534  0.49006441     0.12100
C4968       C  0.74045764  0.83039496  0.49508596    -0.12300
H4969       H  0.79532293  0.86270052  0.48164758     0.12400
C4970       C  0.79507654  0.77421571  0.46044222    -0.23100
H4971       H  0.74026037  0.74359252  0.47354547     0.08000
C4972       C  0.68184877  0.75074949  0.48307997     0.04400
C4973       C  0.65361683  0.73113753  0.49013186    -0.20300
C4974       C  0.65176835  0.72107385  0.50404917    -0.12600
C4975       C  0.67870740  0.72904569  0.51085021     0.13100
C4976       C  0.70682678  0.74811049  0.50369641    -0.23100
C4977       C  0.68314785  0.76268735  0.46835863    -0.06100
H4978       H  0.63294521  0.72479752  0.48492839     0.14600
C4979       C  0.67809377  0.71735057  0.52555890    -0.16300
H4980       H  0.72763316  0.75483224  0.50885347     0.08900
H4981       H  0.79749750  0.78302849  0.44949681     0.06800
H4982       H  0.78040182  0.74696410  0.46093391     0.08000
H4983       H  0.81748736  0.77986527  0.46425073     0.07000
H4984       H  0.73585988  0.81837068  0.50560662     0.01900
H4985       H  0.71879378  0.82625098  0.49087875     0.02400
H4986       H  0.75559290  0.85732684  0.49579451     0.05900
H4987       H  0.66008529  0.75372017  0.46451085     0.04900
H4988       H  0.69506683  0.75365142  0.46179910    -0.00900
H4989       H  0.69557001  0.79005257  0.46740751     0.00600
H4990       H  0.70113778  0.72387764  0.52880556     0.04200
H4991       H  0.66348101  0.69012684  0.52685625     0.06200
H4992       H  0.66936990  0.72912611  0.53242858     0.07000
C4993       C  0.61496455  0.79012946  0.57916086    -0.22600
C4994       C  0.59121864  0.75743299  0.58011506     0.09400
C4995       C  0.57456228  0.74319256  0.59264800     0.09800
C4996       C  0.58191239  0.76235294  0.60404741    -0.17500
C4997       C  0.60575712  0.79532736  0.60316841    -0.27900
C4998       C  0.62268309  0.80930182  0.59050896     0.18100
C4999       C  0.58642169  0.73811164  0.56805181     0.12100
C5000       C  0.54931796  0.70778745  0.59396766    -0.12300
H5001       H  0.56899289  0.75150732  0.61368678     0.12400
C5002       C  0.64985362  0.84371889  0.58891738    -0.23100
H5003       H  0.62796746  0.80043935  0.56949686     0.08000
C5004       C  0.56905024  0.73922073  0.55717145     0.04400
C5005       C  0.56922768  0.72452178  0.54503979    -0.20300
C5006       C  0.58656817  0.70910297  0.54368078    -0.12600
C5007       C  0.60249649  0.70641597  0.55490120     0.13100
C5008       C  0.60239959  0.72122633  0.56692762    -0.23100
C5009       C  0.55103332  0.75653312  0.55829524    -0.06100
H5010       H  0.55687995  0.72625161  0.53641252     0.14600
C5011       C  0.61970145  0.68804023  0.55458077    -0.16300
H5012       H  0.61551593  0.72031420  0.57539140     0.08900
H5013       H  0.64265458  0.86225404  0.58996498     0.06800
H5014       H  0.66177878  0.84901371  0.57869271     0.08000
H5015       H  0.66635827  0.84659586  0.59675848     0.07000
H5016       H  0.55842930  0.69139681  0.59162521     0.01900
H5017       H  0.53158652  0.70412939  0.58667506     0.02400
H5018       H  0.53852509  0.70047698  0.60448823     0.05900
H5019       H  0.53864755  0.75501127  0.54886668     0.04900
H5020       H  0.56645701  0.78296273  0.55994462    -0.00900
H5021       H  0.53412379  0.74499765  0.56707827     0.00600
H5022       H  0.64413088  0.70530654  0.55601548     0.04200
H5023       H  0.61760714  0.67595080  0.54489470     0.06200
H5024       H  0.61072391  0.66842677  0.56305988     0.07000
C5025       C  0.72432964  0.51035039  0.50543700    -0.22600
C5026       C  0.72509134  0.51979391  0.49160822     0.09400
C5027       C  0.74680439  0.51986931  0.48240491     0.09800
C5028       C  0.76647582  0.50899638  0.48719317    -0.17500
C5029       C  0.76484303  0.49787601  0.50099581    -0.27900
C5030       C  0.74373956  0.49940781  0.51031340     0.18100
C5031       C  0.70222059  0.52862494  0.48706282     0.12100
C5032       C  0.72440320  0.01479125  0.46607382    -0.12300
H5033       H  0.76436322  0.99962715  0.47772421     0.12400
C5034       C  0.74137119  0.49012107  0.52549509    -0.23100
H5035       H  0.70786015  0.51091552  0.51243058     0.08000
C5036       C  0.67397681  0.50470749  0.48237372     0.04400
C5037       C  0.65304728  0.51414199  0.47805589    -0.20300
C5038       C  0.65960143  0.54682283  0.47855048    -0.12600
C5039       C  0.68719843  0.57034187  0.48390651     0.13100
C5040       C  0.70823035  0.56097914  0.48809762    -0.23100
C5041       C  0.65974528  0.99607189  0.49467461    -0.06100
H5042       H  0.63053632  0.02727908  0.48486695     0.14600
C5043       C  0.69434629  0.60528340  0.48524861    -0.16300
H5044       H  0.72955616  0.57898687  0.49208774     0.08900
H5045       H  0.73168631  0.46313384  0.52732880     0.06800
H5046       H  0.72608721  0.49640329  0.53118339     0.08000
H5047       H  0.76408362  0.50365901  0.52986866     0.07000
H5048       H  0.73006364  0.03814229  0.46017525     0.01900
H5049       H  0.69936055  0.99846076  0.46688651     0.02400
H5050       H  0.73427226  0.00232743  0.46028837     0.05900
H5051       H  0.63463229  0.98415811  0.49586818     0.04900
H5052       H  0.66637713  0.45916437  0.49236160    -0.00900
H5053       H  0.66530982  0.98024340  0.48863607     0.00600
H5054       H  0.71653571  0.62031150  0.48990486     0.04200
H5055       H  0.67642891  0.60530689  0.49187656     0.06200
H5056       H  0.69532287  0.61715203  0.47501607     0.07000
C5057       C  0.75743297  0.95205780  0.58389731    -0.22600
C5058       C  0.75612058  0.92617829  0.57687525     0.09400
C5059       C  0.74455264  0.89475803  0.58371390     0.09800
C5060       C  0.73275982  0.88944128  0.59730257    -0.17500
C5061       C  0.73204431  0.91481922  0.60397782    -0.27900
C5062       C  0.74533376  0.94673934  0.59734458     0.18100
C5063       C  0.76457826  0.93239621  0.56205117     0.12100
C5064       C  0.74368028  0.86675074  0.57650330    -0.12300
H5065       H  0.72229141  0.86494774  0.60240132     0.12400
C5066       C  0.74606462  0.97540952  0.60396395    -0.23100
H5067       H  0.76073903  0.45471345  0.57451109     0.08000
C5068       C  0.74302205  0.92867854  0.55239050     0.04400
C5069       C  0.75267866  0.93955302  0.53865390    -0.20300
C5070       C  0.78250558  0.42956869  0.53452030    -0.12600
C5071       C  0.80342686  0.43391926  0.54475580     0.13100
C5072       C  0.79513721  0.94627238  0.55780536    -0.23100
C5073       C  0.71000989  0.91449098  0.55669372    -0.06100
H5074       H  0.73613460  0.93726634  0.53130549     0.14600
C5075       C  0.83723776  0.45261812  0.54178384    -0.16300
H5076       H  0.81148780  0.94944652  0.56540419     0.08900
H5077       H  0.73280472  0.98412187  0.59796715     0.06800
H5078       H  0.76531067  0.48362605  0.59770567     0.08000
H5079       H  0.73662483  0.96913768  0.61469402     0.07000
H5080       H  0.76708826  0.87338316  0.57310382     0.01900
H5081       H  0.72961892  0.86165594  0.56741324     0.02400
H5082       H  0.73385545  0.84379423  0.58332637     0.05900
H5083       H  0.69626484  0.91375171  0.54787583     0.04900
H5084       H  0.70766424  0.92975228  0.56439808    -0.00900
H5085       H  0.70059292  0.88895615  0.56123814     0.00600
H5086       H  0.84992232  0.45380441  0.55107281     0.04200
H5087       H  0.84483903  0.47831430  0.53788894     0.06200
H5088       H  0.84302678  0.43984891  0.53410681     0.07000
C5089       C  0.90750117  0.70142295  0.39093282    -0.22600
C5090       C  0.93330404  0.69945654  0.38751074     0.09400
C5091       C  0.93898348  0.69503591  0.37387042     0.09800
C5092       C  0.91790529  0.69128038  0.36401138    -0.17500
C5093       C  0.89121944  0.69197861  0.36745941    -0.27900
C5094       C  0.88658598  0.69823845  0.38113186     0.18100
C5095       C  0.95242878  0.69962185  0.39878228     0.12100
C5096       C  0.96736365  0.69453938  0.36974049    -0.12300
H5097       H  0.92215827  0.68723387  0.35359075     0.12400
C5098       C  0.86026115  0.70238939  0.38561367    -0.23100
H5099       H  0.90350554  0.70500978  0.40147533     0.08000
C5100       C  0.97008529  0.72814897  0.40580955     0.04400
C5101       C  0.98164085  0.72526152  0.41839295    -0.20300
C5102       C  0.97528706  0.69436202  0.42430243    -0.12600
C5103       C  0.96007705  0.66627650  0.41651773     0.13100
C5104       C  0.94893955  0.66942939  0.40382936    -0.23100
C5105       C  0.97575022  0.76138219  0.40028009    -0.06100
H5106       H  0.99392277  0.74699567  0.42410410     0.14600
C5107       C  0.44776714  0.62089810  0.42688679    -0.16300
H5108       H  0.93545567  0.64770612  0.39826810     0.08900
H5109       H  0.86195799  0.70972869  0.39633400     0.06800
H5110       H  0.83856019  0.67882805  0.38520068     0.08000
H5111       H  0.85995114  0.72202397  0.37894313     0.07000
H5112       H  0.45365474  0.64186567  0.37830185     0.01900
H5113       H  0.47947846  0.68473406  0.37296247     0.02400
H5114       H  0.45556971  0.65669907  0.36078198     0.05900
H5115       H  0.99059229  0.78123344  0.40691627     0.04900
H5116       H  0.95397502  0.76129010  0.39966720    -0.00900
H5117       H  0.98705208  0.76728805  0.38988318     0.00600
H5118       H  0.93856203  0.62439097  0.43129952     0.04200
H5119       H  0.46771793  0.61764112  0.42827838     0.06200
H5120       H  0.43098896  0.59977169  0.42130793     0.07000
C5121       C  0.87006261  0.81201384  0.41949348    -0.22600
C5122       C  0.86279217  0.82464483  0.40781047     0.09400
C5123       C  0.86147426  0.85387018  0.40825807     0.09800
C5124       C  0.86528444  0.86858562  0.42074813    -0.17500
C5125       C  0.86999188  0.85433086  0.43269787    -0.27900
C5126       C  0.87379779  0.82663666  0.43197632     0.18100
C5127       C  0.85392848  0.80530034  0.39559530     0.12100
C5128       C  0.85474863  0.86860151  0.39570185    -0.12300
H5129       H  0.86217891  0.88969254  0.42141442     0.12400
C5130       C  0.88081884  0.81142644  0.44429861    -0.23100
H5131       H  0.87153357  0.78983770  0.41900703     0.08000
C5132       C  0.87567735  0.80791891  0.38576188     0.04400
C5133       C  0.86585854  0.78944098  0.37420789    -0.20300
C5134       C  0.83485278  0.76806932  0.37247614    -0.12600
C5135       C  0.81301340  0.76540359  0.38237614     0.13100
C5136       C  0.82292761  0.78405940  0.39386603    -0.23100
C5137       C  0.90911743  0.83005819  0.38752437    -0.06100
H5138       H  0.88245380  0.79108796  0.36663266     0.14600
C5139       C  0.77922429  0.74403551  0.38098530    -0.16300
H5140       H  0.80635342  0.78230264  0.40148707     0.08900
H5141       H  0.90209350  0.81104310  0.44206870     0.06800
H5142       H  0.86198769  0.78574339  0.44660198     0.08000
H5143       H  0.88411669  0.82531145  0.45357100     0.07000
H5144       H  0.83209554  0.85078341  0.39209886     0.01900
H5145       H  0.87229758  0.87462844  0.38742235     0.02400
H5146       H  0.85470053  0.89158221  0.39781903     0.05900
H5147       H  0.92305695  0.82930234  0.37883947     0.04900
H5148       H  0.91572277  0.82209501  0.39711143    -0.00900
H5149       H  0.91430178  0.85589041  0.38810933     0.00600
H5150       H  0.76936935  0.72488787  0.38964039     0.04200
H5151       H  0.77329337  0.73157600  0.37126011     0.06200
H5152       H  0.76840052  0.75948220  0.38128189     0.07000
C5153       C  0.67231910  0.60408670  0.38835519    -0.22600
C5154       C  0.67255412  0.62934912  0.39549954     0.09400
C5155       C  0.68631528  0.66164426  0.38921774     0.09800
C5156       C  0.70064829  0.66817772  0.37610125    -0.17500
C5157       C  0.70192046  0.64323922  0.36935460    -0.27900
C5158       C  0.68709455  0.61072900  0.37538592     0.18100
C5159       C  0.66152865  0.62180256  0.41008801     0.12100
C5160       C  0.68664127  0.68929086  0.39650222    -0.12300
H5161       H  0.71253793  0.69318378  0.37147795     0.12400
C5162       C  0.68797833  0.58336270  0.36835979    -0.23100
H5163       H  0.66192945  0.57941759  0.39328060     0.08000
C5164       C  0.63041237  0.60230820  0.41401204     0.04400
C5165       C  0.62163419  0.59170090  0.42789471    -0.20300
C5166       C  0.64334950  0.59973896  0.43790579    -0.12600
C5167       C  0.67453447  0.62085996  0.43397618     0.13100
C5168       C  0.68311934  0.63151849  0.42012270    -0.23100
C5169       C  0.60658865  0.59245141  0.40351461    -0.06100
H5170       H  0.59776466  0.57584929  0.43083186     0.14600
C5171       C  0.69901866  0.63270810  0.44423968    -0.16300
H5172       H  0.70699190  0.64658999  0.41699404     0.08900
H5173       H  0.67792170  0.58079794  0.35818986     0.06800
H5174       H  0.67498238  0.55935524  0.37443424     0.08000
H5175       H  0.71180607  0.58895278  0.36692285     0.07000
H5176       H  0.69914044  0.69318295  0.40605172     0.01900
H5177       H  0.66297703  0.68307810  0.39911507     0.02400
H5178       H  0.69793388  0.71283766  0.39003001     0.05900
H5179       H  0.58328716  0.57776353  0.40832358     0.04900
H5180       H  0.60955269  0.57730635  0.39595941    -0.00900
H5181       H  0.60869200  0.61488120  0.39807181     0.00600
H5182       H  0.70148324  0.61194046  0.44856672     0.04200
H5183       H  0.69338045  0.64425795  0.45256808     0.06200
H5184       H  0.72149358  0.65144018  0.43946026     0.07000
C5185       C  0.83863493  0.95324474  0.05078566    -0.22600
C5186       C  0.83108483  0.92122743  0.05533787     0.09400
C5187       C  0.83701641  0.90170020  0.04672828     0.09800
C5188       C  0.85351799  0.91603796  0.03425066    -0.17500
C5189       C  0.86422744  0.94936544  0.03048128    -0.27900
C5190       C  0.85511483  0.96759444  0.03836297     0.18100
C5191       C  0.82196314  0.91105646  0.06990807     0.12100
C5192       C  0.82738078  0.86646728  0.05107534    -0.12300
H5193       H  0.86031088  0.90210469  0.02804524     0.12400
C5194       C  0.86334245  0.00250717  0.03417070    -0.23100
H5195       H  0.83340053  0.96783023  0.05736962     0.08000
C5196       C  0.84405613  0.91672058  0.07953446     0.04400
C5197       C  0.83502986  0.90812526  0.09340243    -0.20300
C5198       C  0.80444264  0.89420876  0.09795483    -0.12600
C5199       C  0.78228804  0.88864313  0.08817918     0.13100
C5200       C  0.79148810  0.89731398  0.07424456    -0.23100
C5201       C  0.87727297  0.93232271  0.07519946    -0.06100
H5202       H  0.85217181  0.91265876  0.10075390     0.14600
C5203       C  0.74893439  0.87287760  0.09213375    -0.16300
H5204       H  0.77490247  0.89340979  0.06667001     0.08900
H5205       H  0.87808920  0.01926407  0.04184064     0.06800
H5206       H  0.84232208  0.00406077  0.03371399     0.08000
H5207       H  0.87525796  0.01115480  0.02391426     0.07000
H5208       H  0.80232497  0.85204440  0.05286227     0.01900
H5209       H  0.83819244  0.86528688  0.06068181     0.02400
H5210       H  0.83390517  0.85478031  0.04311908     0.05900
H5211       H  0.89147433  0.93525275  0.08410215     0.04900
H5212       H  0.88543095  0.95712352  0.07004683    -0.00900
H5213       H  0.88067931  0.91679372  0.06800861     0.00600
H5214       H  0.74492055  0.88911342  0.09865647     0.04200
H5215       H  0.74084551  0.84851621  0.09770353     0.06200
H5216       H  0.73506120  0.86881035  0.08301422     0.07000
C5217       C  0.88512876  0.80460191  0.16265257    -0.22600
C5218       C  0.89595643  0.83591765  0.15615975     0.09400
C5219       C  0.92756663  0.85770361  0.15431318     0.09800
C5220       C  0.94768135  0.84828921  0.15980097    -0.17500
C5221       C  0.93680870  0.81741547  0.16695032    -0.27900
C5222       C  0.90502487  0.79479781  0.16789851     0.18100
C5223       C  0.87343743  0.84419686  0.15070175     0.12100
C5224       C  0.93996406  0.89072279  0.14653018    -0.12300
H5225       H  0.97191650  0.86549770  0.15885552     0.12400
C5226       C  0.89169005  0.75986503  0.17398918    -0.23100
H5227       H  0.86082412  0.78765608  0.16356649     0.08000
C5228       C  0.86001777  0.83249195  0.13822108     0.04400
C5229       C  0.83799623  0.83965288  0.13357500    -0.20300
C5230       C  0.82905782  0.85860805  0.14098218    -0.12600
C5231       C  0.84237149  0.87012794  0.15363784     0.13100
C5232       C  0.86421286  0.86242064  0.15838238    -0.23100
C5233       C  0.86930336  0.81284218  0.12968329    -0.06100
H5234       H  0.82800258  0.83080385  0.12387236     0.14600
C5235       C  0.83539263  0.89162451  0.16214251    -0.16300
H5236       H  0.87448502  0.87111726  0.16805134     0.08900
H5237       H  0.90314702  0.74783903  0.16912675     0.06800
H5238       H  0.86703892  0.74485093  0.17226748     0.08000
H5239       H  0.89409156  0.75949759  0.18523403     0.07000
H5240       H  0.93202402  0.90572166  0.15171961     0.01900
H5241       H  0.93196141  0.88720464  0.13592164     0.02400
H5242       H  0.96519586  0.90461425  0.14588954     0.05900
H5243       H  0.85694689  0.80610423  0.12005234     0.04900
H5244       H  0.86431845  0.78970446  0.13556211    -0.00900
H5245       H  0.89400590  0.82754926  0.12689704     0.00600
H5246       H  0.82539680  0.87867906  0.17233619     0.04200
H5247       H  0.81951076  0.89833757  0.15742531     0.06200
H5248       H  0.85673119  0.91497276  0.16363533     0.07000
C5249       C  0.96097611  0.74094409  0.22877128    -0.22600
C5250       C  0.93734385  0.74290649  0.23530425     0.09400
C5251       C  0.92389968  0.75910697  0.22843869     0.09800
C5252       C  0.93458357  0.77329818  0.21515648    -0.17500
C5253       C  0.95874436  0.77217124  0.20852174    -0.27900
C5254       C  0.46888800  0.74204558  0.21538337     0.18100
C5255       C  0.92684509  0.72848009  0.24945812     0.12100
C5256       C  0.89831860  0.76161502  0.23517850    -0.12300
H5257       H  0.92424713  0.78597911  0.21005029     0.12400
C5258       C  0.49070320  0.73542204  0.20746232    -0.23100
H5259       H  0.46838173  0.71310982  0.23345227     0.08000
C5260       C  0.90269855  0.69588251  0.25203388     0.04400
C5261       C  0.88797047  0.68601893  0.26507377    -0.20300
C5262       C  0.89684545  0.70813058  0.27547666    -0.12600
C5263       C  0.92270056  0.73991091  0.27320180     0.13100
C5264       C  0.93759382  0.74955881  0.26019058    -0.23100
C5265       C  0.89137020  0.67226492  0.24081932    -0.06100
H5266       H  0.86807031  0.66171321  0.26688330     0.14600
C5267       C  0.93373739  0.76517453  0.28379540    -0.16300
H5268       H  0.95620962  0.77459863  0.25809778     0.08900
H5269       H  0.48082128  0.72452812  0.19770226     0.06800
H5270       H  0.49560407  0.71785266  0.21331090     0.08000
H5271       H  0.51264926  0.75862317  0.20529807     0.07000
H5272       H  0.90611429  0.77525926  0.24458997     0.01900
H5273       H  0.87882896  0.73656383  0.23795389     0.02400
H5274       H  0.89022188  0.77486595  0.22830043     0.05900
H5275       H  0.87222077  0.64774152  0.24459734     0.04900
H5276       H  0.91004168  0.66882269  0.23679819    -0.00900
H5277       H  0.88335756  0.68216982  0.23234268     0.00600
H5278       H  0.95770680  0.77296850  0.28585404     0.04200
H5279       H  0.92032819  0.75594339  0.29366495     0.06200
H5280       H  0.93254372  0.78706359  0.27984681     0.07000
C5281       C  0.76765106  0.54468857  0.25920451    -0.22600
C5282       C  0.76344228  0.55838534  0.24700366     0.09400
C5283       C  0.76076622  0.58677049  0.24707101     0.09800
C5284       C  0.76355878  0.60171455  0.25939401    -0.17500
C5285       C  0.76897358  0.58891718  0.27167278    -0.27900
C5286       C  0.77041378  0.55949547  0.27160075     0.18100
C5287       C  0.76410139  0.54399810  0.23407644     0.12100
C5288       C  0.75555015  0.60158927  0.23408944    -0.12300
H5289       H  0.76197540  0.62388489  0.25936867     0.12400
C5290       C  0.77611126  0.54414193  0.28428010    -0.23100
H5291       H  0.76963168  0.52279368  0.25891317     0.08000
C5292       C  0.79169231  0.55497384  0.22658875     0.04400
C5293       C  0.79129401  0.54211473  0.21397398    -0.20300
C5294       C  0.76387771  0.51892701  0.20849406    -0.12600
C5295       C  0.73619246  0.50723699  0.21631401     0.13100
C5296       C  0.73680327  0.51993877  0.22907384    -0.23100
C5297       C  0.82147036  0.58083954  0.23177320    -0.06100
H5298       H  0.81263061  0.55095788  0.20820339     0.14600
C5299       C  0.70216588  0.97732226  0.21349313    -0.16300
H5300       H  0.71582107  0.51176273  0.23504903     0.08900
H5301       H  0.77780928  0.52215098  0.28204821     0.06800
H5302       H  0.75705468  0.53591750  0.29200869     0.08000
H5303       H  0.79781859  0.56223032  0.28858265     0.07000
H5304       H  0.73398008  0.58325135  0.22976499     0.01900
H5305       H  0.77456744  0.60886205  0.22643743     0.02400
H5306       H  0.75399749  0.62383869  0.23596913     0.05900
H5307       H  0.84092748  0.58678686  0.22457609     0.04900
H5308       H  0.82546485  0.57189255  0.24181373    -0.00900
H5309       H  0.82093562  0.60389535  0.23304327     0.00600
H5310       H  0.70275954  0.95403992  0.21335832     0.04200
H5311       H  0.69934100  0.98525695  0.20299538     0.06200
H5312       H  0.68177786  0.97198192  0.21989898     0.07000
C5313       C  0.85881538  0.57273233  0.14687414    -0.22600
C5314       C  0.86978197  0.60519241  0.15045086     0.09400
C5315       C  0.85347246  0.61202140  0.16022990     0.09800
C5316       C  0.82697668  0.58597471  0.16662567    -0.17500
C5317       C  0.81633626  0.55315557  0.16352502    -0.27900
C5318       C  0.83209218  0.54646633  0.15327122     0.18100
C5319       C  0.89872146  0.63183161  0.14405183     0.12100
C5320       C  0.86444146  0.64670421  0.16416878    -0.12300
H5321       H  0.81475919  0.59127581  0.17433687     0.12400
C5322       C  0.82168575  0.51189093  0.14939882    -0.23100
H5323       H  0.87154408  0.56795896  0.13922656     0.08000
C5324       C  0.92682377  0.63829227  0.14910663     0.04400
C5325       C  0.95370403  0.66438757  0.14288188    -0.20300
C5326       C  0.95294014  0.68388143  0.13171885    -0.12600
C5327       C  0.92474219  0.67803775  0.12697317     0.13100
C5328       C  0.89787675  0.65190326  0.13319153    -0.23100
C5329       C  0.92837426  0.61776421  0.16107336    -0.06100
H5330       H  0.97543631  0.66915960  0.14653492     0.14600
C5331       C  0.42298900  0.66876932  0.10898666    -0.16300
H5332       H  0.87607666  0.64711708  0.12963187     0.08900
H5333       H  0.83745732  0.51129981  0.14157543     0.06800
H5334       H  0.79898203  0.50129985  0.14500138     0.08000
H5335       H  0.82050561  0.49631156  0.15858149     0.07000
H5336       H  0.86543221  0.66234942  0.15505292     0.01900
H5337       H  0.88743050  0.65712027  0.16826653     0.02400
H5338       H  0.84912469  0.64756565  0.17215768     0.05900
H5339       H  0.95217807  0.62638862  0.16378707     0.04900
H5340       H  0.91797384  0.59167343  0.15849385    -0.00900
H5341       H  0.91590097  0.61923316  0.17018808     0.00600
H5342       H  0.43578828  0.66072392  0.10249158     0.04200
H5343       H  0.43279673  0.69585024  0.10743240     0.06200
H5344       H  0.39937218  0.65670403  0.10551193     0.07000
C5345       C  0.00770833  0.70206039  0.06911888    -0.22600
C5346       C  0.53601105  0.67983884  0.06915045     0.09400
C5347       C  0.55667504  0.68965535  0.07969846     0.09800
C5348       C  0.55096441  0.70266049  0.09123983    -0.17500
C5349       C  0.52530222  0.70638067  0.09228068    -0.27900
C5350       C  0.00275950  0.71462798  0.08094581     0.18100
C5351       C  0.53714373  0.66026267  0.05807802     0.12100
C5352       C  0.58443862  0.68609592  0.07881065    -0.12300
H5353       H  0.56579210  0.70846109  0.09975114     0.12400
C5354       C  0.97560640  0.71930082  0.08168161    -0.23100
H5355       H  0.99100725  0.69398087  0.06132158     0.08000
C5356       C  0.02351946  0.64555273  0.05836160     0.04400
C5357       C  0.01977552  0.62677709  0.04715534    -0.20300
C5358       C  0.52848803  0.62211985  0.03551508    -0.12600
C5359       C  0.54403012  0.65691457  0.03354403     0.13100
C5360       C  0.54828492  0.67562856  0.04493442    -0.23100
C5361       C  0.01385562  0.62844129  0.07255402    -0.06100
H5362       H  0.01107098  0.60058504  0.04896881     0.14600
C5363       C  0.55428449  0.67430294  0.01946593    -0.16300
H5364       H  0.55880679  0.70220299  0.04350276     0.08900
H5365       H  0.95441622  0.69494661  0.08207542     0.06800
H5366       H  0.97604076  0.73421912  0.07240515     0.08000
H5367       H  0.97547444  0.73276883  0.09063677     0.07000
H5368       H  0.59878125  0.70064942  0.06956531     0.01900
H5369       H  0.57787148  0.65990583  0.07807248     0.02400
H5370       H  0.59829161  0.69516867  0.08793442     0.05900
H5371       H  0.00510750  0.60153940  0.07239357     0.04900
H5372       H  0.99546286  0.63180356  0.07700460    -0.00900
H5373       H  0.03326823  0.63868431  0.07933498     0.00600
H5374       H  0.53449966  0.66595231  0.01289808     0.04200
H5375       H  0.57116546  0.66890645  0.01475753     0.06200
H5376       H  0.56518437  0.70146526  0.01984671     0.07000
C5377       C  0.69982383  0.67660979  0.25502291    -0.22600
C5378       C  0.70823604  0.70935108  0.25126547     0.09400
C5379       C  0.72083124  0.73338479  0.26096695     0.09800
C5380       C  0.72718966  0.72460641  0.27391589    -0.17500
C5381       C  0.72121044  0.69243496  0.27721927    -0.27900
C5382       C  0.70628985  0.66785164  0.26788885     0.18100
C5383       C  0.70604025  0.71812746  0.23677003     0.12100
C5384       C  0.72902242  0.76851042  0.25738221    -0.12300
H5385       H  0.73892797  0.74341289  0.28107565     0.12400
C5386       C  0.69816962  0.63253875  0.27098323    -0.23100
H5387       H  0.68961433  0.65812298  0.24759355     0.08000
C5388       C  0.72737312  0.72088580  0.22659310     0.04400
C5389       C  0.72319252  0.72655900  0.21280226    -0.20300
C5390       C  0.69815332  0.72937007  0.20899134    -0.12600
C5391       C  0.67669620  0.72645396  0.21920580     0.13100
C5392       C  0.68128992  0.72148111  0.23301870    -0.23100
C5393       C  0.75435253  0.71749630  0.23027664    -0.06100
H5394       H  0.73915963  0.72808764  0.20490921     0.14600
C5395       C  0.64777278  0.72629753  0.21595805    -0.16300
H5396       H  0.66474578  0.71875729  0.24087613     0.08900
H5397       H  0.71060519  0.62588803  0.26354332     0.06800
H5398       H  0.67338158  0.61611738  0.27003513     0.08000
H5399       H  0.70368893  0.62793366  0.28149435     0.07000
H5400       H  0.70833885  0.76934513  0.25464974     0.01900
H5401       H  0.74582330  0.77894227  0.24853018     0.02400
H5402       H  0.73905533  0.78424310  0.26609973     0.05900
H5403       H  0.76901782  0.72088501  0.22108491     0.04900
H5404       H  0.74658630  0.69258981  0.23521998    -0.00900
H5405       H  0.76828308  0.73637375  0.23745951     0.00600
H5406       H  0.62798417  0.70295943  0.22036563     0.04200
H5407       H  0.64460307  0.72801656  0.20483970     0.06200
H5408       H  0.64764229  0.74730718  0.22060256     0.07000
C5409       C  0.60206983  0.55204668  0.15873350    -0.22600
C5410       C  0.61991463  0.57959431  0.14970995     0.09400
C5411       C  0.62279000  0.57595543  0.13564154     0.09800
C5412       C  0.60771277  0.54434313  0.13085700    -0.17500
C5413       C  0.59048208  0.51670311  0.13994036    -0.27900
C5414       C  0.58733397  0.52040160  0.15399448     0.18100
C5415       C  0.63529937  0.61210116  0.15528936     0.12100
C5416       C  0.64208325  0.60531273  0.12579764    -0.12300
H5417       H  0.61007570  0.54104738  0.12009519     0.12400
C5418       C  0.56813981  0.49112095  0.16390714    -0.23100
H5419       H  0.59990070  0.55539313  0.16950532     0.08000
C5420       C  0.62084020  0.63083270  0.15608773     0.04400
C5421       C  0.63598185  0.66127964  0.16181260    -0.20300
C5422       C  0.66474964  0.67276607  0.16713283    -0.12600
C5423       C  0.67920524  0.65387861  0.16636593     0.13100
C5424       C  0.66429488  0.62370067  0.16028512    -0.23100
C5425       C  0.58920518  0.61831166  0.15122463    -0.06100
H5426       H  0.62480007  0.67566478  0.16260013     0.14600
C5427       C  0.71031878  0.66558803  0.17170660    -0.16300
H5428       H  0.67499632  0.60881699  0.15959568     0.08900
H5429       H  0.54453892  0.47752420  0.16045426     0.06800
H5430       H  0.56733423  0.49870466  0.17441485     0.08000
H5431       H  0.57762816  0.47439059  0.16446532     0.07000
H5432       H  0.66591235  0.61807799  0.12898842     0.01900
H5433       H  0.63337346  0.62274973  0.12573246     0.02400
H5434       H  0.64198332  0.59796812  0.11516635     0.05900
H5435       H  0.58127287  0.63613818  0.15268999     0.04900
H5436       H  0.57313155  0.59479880  0.15708657    -0.00900
H5437       H  0.58868899  0.61402405  0.14015027     0.00600
H5438       H  0.71864570  0.64834919  0.16963621     0.04200
H5439       H  0.70969962  0.66738349  0.18296682     0.06200
H5440       H  0.72671355  0.69010856  0.16665891     0.07000
C5441       C  0.48998958  0.44624667  0.09511229    -0.22600
C5442       C  0.49831499  0.43606221  0.08343619     0.09400
C5443       C  0.53558335  0.94279918  0.08773250     0.09800
C5444       C  0.54857745  0.94218414  0.10018175    -0.17500
C5445       C  0.54204820  0.95403619  0.11188755    -0.27900
C5446       C  0.50336036  0.44704825  0.10758335     0.18100
C5447       C  0.49135969  0.44567820  0.07000324     0.12100
C5448       C  0.54441907  0.93169553  0.07513499    -0.12300
H5449       H  0.56558102  0.93474871  0.10050893     0.12400
C5450       C  0.49466301  0.45987976  0.11966433    -0.23100
H5451       H  0.47478167  0.45605504  0.09417414     0.08000
C5452       C  0.47824757  0.94632457  0.06858907     0.04400
C5453       C  0.45790775  0.43825662  0.05145845    -0.20300
C5454       C  0.47970995  0.46886950  0.04516526    -0.12600
C5455       C  0.50760892  0.48802149  0.05126760     0.13100
C5456       C  0.51309495  0.47618275  0.06365336    -0.23100
C5457       C  0.96308992  0.94094339  0.08148963    -0.06100
H5458       H  0.95630427  0.95358653  0.05481019     0.14600
C5459       C  0.53162431  0.52085291  0.04467177    -0.16300
H5460       H  0.53438421  0.49084596  0.06849308     0.08900
H5461       H  0.48876433  0.44241480  0.12878260     0.06800
H5462       H  0.47467313  0.46272783  0.11763995     0.08000
H5463       H  0.51357450  0.48446360  0.12191669     0.07000
H5464       H  0.55614237  0.95257481  0.06727167     0.01900
H5465       H  0.52375772  0.91165284  0.07084196     0.02400
H5466       H  0.56000729  0.92219329  0.07750414     0.05900
H5467       H  0.94030652  0.93371280  0.07768445     0.04900
H5468       H  0.44813777  0.92334738  0.08647471    -0.00900
H5469       H  0.96235528  0.91850816  0.08617065     0.00600
H5470       H  0.55205462  0.53261448  0.05086474     0.06600
H5471       H  0.52242798  0.53780430  0.04356027     0.06200
H5472       H  0.53880519  0.51745673  0.03439421     0.07000
loop_ 
_geom_bond_atom_site_label_1 
_geom_bond_atom_site_label_2 
_geom_bond_distance 
_geom_bond_site_symmetry_2 
_ccdc_geom_bond_type 
C1            N6   1.362       .  A
C1         N1370   1.358       .  A
C1         C1341   1.469       .  S
N2            C3   1.358       .  A
N2         C1369   1.359   1_545  A
C3         N1372   1.349   1_545  A
C3         C1309   1.479       .  S
N4            C5   1.351       .  A
N4         C1371   1.351       .  A
C5            N6   1.361       .  A
C5           C80   1.462       .  S
C7            N8   1.359       .  A
C7           N12   1.358       .  A
C7         C1286   1.477       .  S
N8            C9   1.359       .  A
C9           N10   1.353       .  A
C9           C61   1.459       .  S
N10          C11   1.354       .  A
C11          N12   1.359       .  A
C11        C1318   1.481       .  S
C13          N14   1.358       .  A
C13        N2754   1.361   1_455  A
C13        C1245   1.480       .  S
N14          C15   1.357       .  A
C15          N16   1.353       .  A
C15          C65   1.452       .  S
N16        C2753   1.356   1_455  A
C17          N18   1.360       .  A
C17        N2752   1.360       .  A
C17        C1222   1.484       .  S
N18        C2749   1.360       .  A
C19          N24   1.354   1_565  A
C19        N1388   1.355       .  A
C19        C1190   1.466   1_565  S
N20          C21   1.357       .  A
N20        C1387   1.356       .  A
C21        N1390   1.358       .  A
C21          C60   1.455       .  S
N22          C23   1.358   1_565  A
N22        C1389   1.357       .  A
C23          N24   1.356       .  A
C23        C1213   1.479       .  S
C25          N26   1.351       .  A
C25        N2766   1.355       .  A
C25        C3885   1.481       .  S
N26          C27   1.356       .  A
C27          N28   1.365       .  A
C27          C73   1.471   1_655  S
N28          C29   1.366       .  A
C29        N2766   1.356       .  A
C29        C3853   1.483       .  S
N30        C2761   1.354       .  A
N30        C2765   1.355       .  A
C31          N32   1.350       .  A
C31          N36   1.353       .  A
C31        C1094   1.482       .  S
N32          C33   1.357       .  A
C33          N34   1.368       .  A
C33          C59   1.477       .  S
N34          C35   1.370       .  A
C35          N36   1.358       .  A
C35        C1126   1.489       .  S
Zr37         O38   2.440       .  S
Zr37         O39   2.456       .  S
Zr37         O40   2.429       .  S
Zr37         O43   2.435       .  S
Zr37         O45   2.376       .  S
Zr37         O46   2.386       .  S
Zr37         O47   2.413       .  S
Zr37         O48   2.410       .  S
O38          H94   0.991       .  S
O38         H102   0.990       .  S
O39          C59   1.286       .  A
O40          C61   1.281       .  A
O41         Zr51   2.418       .  S
O41          C60   1.281       .  A
O42         Zr50   2.436       .  S
O42          C61   1.285       .  A
O43          C60   1.284       .  A
O44         Zr52   2.415       .  S
O44          C59   1.283       .  A
O45         Zr50   2.382       .  S
O45         Zr52   2.375       .  S
O46         Zr51   2.390       .  S
O46         Zr52   2.368       .  S
O46          H81   0.966       .  S
O47         Zr50   2.397       .  S
O47         Zr67   2.385       .  S
O47          H84   0.965       .  S
O48         Zr51   2.394       .  S
O48         Zr67   2.401       .  S
Zr49         O74   2.441       .  S
Zr49         O68   2.443       .  S
Zr49         O76   2.419       .  S
Zr49         O64   2.437       .  S
Zr49         O55   2.403       .  S
Zr49         O56   2.405       .  S
Zr49         O57   2.381       .  S
Zr49         O58   2.384       .  S
Zr50         O69   2.436       .  S
Zr50         O62   2.435       .  S
Zr50         O63   2.414       .  S
Zr50         O56   2.402       .  S
Zr50         O57   2.399       .  S
Zr51         O53   2.436       .  S
Zr51         O75   2.436       .  S
Zr51         O77   2.426       .  S
Zr51         O55   2.383       .  S
Zr51         O58   2.386       .  S
Zr52         O78   2.437       .  S
Zr52         O79   2.437       .  S
Zr52         O54   2.436       .  S
Zr52         O55   2.390       .  S
Zr52         O56   2.388       .  S
O53          H90   0.990       .  S
O54          H85   0.990       .  S
O54          H99   0.990       .  S
O56          H82   0.965       .  S
O57         Zr67   2.378       .  S
O58         Zr67   2.369       .  S
O58          H83   0.966       .  S
O62          H98   0.990       .  S
O63          C65   1.280       .  A
O64          C65   1.283       .  A
O66         Zr67   2.439       .  S
O66          H95   0.991       .  S
Zr67         O70   2.439       .  S
Zr67         O71   2.439       .  S
Zr67         O72   2.418       .  S
O68          C73   1.283       .  A
O69          H86   0.990       .  S
O69         H101   0.990       .  S
O70          H87   0.990       .  S
O71          H91   0.990       .  S
O71         H100   0.990       .  S
O72          C73   1.282       .  A
O74          H93   0.990       .  S
O74          H97   0.991       .  S
O75          H89   0.990       .  S
O75          H96   0.990       .  S
O76          C80   1.280       .  A
O77          C80   1.285       .  A
O78          H88   0.990       .  S
O79          H92   0.991       .  S
Zr103       O104   2.438       .  S
Zr103       O105   2.413       .  S
Zr103       O106   2.425       .  S
Zr103       O109   2.412       .  S
Zr103       O111   2.373       .  S
Zr103       O112   2.381       .  S
Zr103       O113   2.396       .  S
Zr103       O114   2.396       .  S
O104        H160   0.990       .  S
O104        H168   0.990       .  S
O105        C125   1.281       .  A
O106        C127   1.282       .  A
O107       Zr117   2.456       .  S
O107        C126   1.289       .  A
O108       Zr116   2.429       .  S
O108        C127   1.284       .  A
O109        C126   1.282       .  A
O110       Zr118   2.430       .  S
O110        C125   1.282       .  A
O111       Zr116   2.386       .  S
O111       Zr118   2.370       .  S
O112       Zr117   2.385       .  S
O112       Zr118   2.373       .  S
O112        H147   0.966       .  S
O113       Zr116   2.399       .  S
O113       Zr133   2.402       .  S
O113        H150   0.966       .  S
O114       Zr117   2.399       .  S
O114       Zr133   2.391       .  S
Zr115       O140   2.440       .  S
Zr115       O134   2.415       .  S
Zr115       O142   2.407       .  S
Zr115       O130   2.418       .  S
Zr115       O121   2.395       .  S
Zr115       O122   2.399       .  S
Zr115       O123   2.374       .  S
Zr115       O124   2.379       .  S
Zr116       O135   2.435       .  S
Zr116       O128   2.433       .  S
Zr116       O129   2.437       .  S
Zr116       O122   2.397       .  S
Zr116       O123   2.389       .  S
Zr117       O119   2.434       .  S
Zr117       O141   2.436       .  S
Zr117       O143   2.454       .  S
Zr117       O121   2.394       .  S
Zr117       O124   2.394       .  S
Zr118       O144   2.435       .  S
Zr118       O145   2.435       .  S
Zr118       O120   2.436       .  S
Zr118       O121   2.394       .  S
Zr118       O122   2.401       .  S
O119        H156   0.990       .  S
O120        H151   0.990       .  S
O120        H165   0.990       .  S
O122        H148   0.966       .  S
O123       Zr133   2.377       .  S
O124       Zr133   2.380       .  S
O124        H149   0.966       .  S
C125       C1030   1.462       .  S
C126       C1053   1.473       .  S
C127        C989   1.488       .  S
O128        H164   0.990       .  S
O129        C131   1.284       .  A
O130        C131   1.281       .  A
C131       C1158   1.473       .  S
O132       Zr133   2.436       .  S
O132        H161   0.990       .  S
Zr133       O136   2.434       .  S
Zr133       O137   2.439       .  S
Zr133       O138   2.420       .  S
O134        C139   1.282       .  A
O135        H152   0.990       .  S
O135        H167   0.990       .  S
O136        H153   0.989       .  S
O137        H157   0.990       .  S
O137        H166   0.989       .  S
O138        C139   1.280       .  A
C139       C1181   1.486       .  S
O140        H159   0.990       .  S
O140        H163   0.991       .  S
O141        H155   0.990       .  S
O141        H162   0.990       .  S
O142        C146   1.280       .  A
O143        C146   1.288       .  A
O144        H154   0.990       .  S
O145        H158   0.990       .  S
C146       C1277   1.472       .  S
C169        N170   1.355       .  A
C169        N174   1.353       .  A
C169        C966   1.488       .  S
N170        C171   1.360       .  A
C171        N172   1.372       .  A
C171        C229   1.485       .  S
N172        C173   1.370       .  A
C173        N174   1.354       .  A
C173        C925   1.498       .  S
C175        N176   1.355       .  A
C175        N180   1.357       .  A
C175       C1062   1.483       .  S
N176        C177   1.360       .  A
C177        N178   1.368       .  A
C177        C248   1.479       .  S
N178        C179   1.368       .  A
C179        N180   1.359       .  A
C179        C934   1.489       .  S
C181        N182   1.353       .  A
C181        N186   1.353       .  A
C181        C902   1.458       .  S
N182        C183   1.354       .  A
C183        N184   1.357       .  A
C183        C870   1.473       .  S
N184        C185   1.359       .  A
C185        N186   1.357       .  A
C185        C241   1.459       .  S
C187        N188   1.353       .  A
C187        N192   1.350       .  A
C187       C1021   1.462       .  S
N188        C189   1.355       .  A
C189        N190   1.363       .  A
C189        C861   1.486       .  S
N190        C191   1.362       .  A
C191        N192   1.355       .  A
C191        C227   1.462       .  S
C193        N194   1.357       .  A
C193        N198   1.354       .  A
C193        C838   1.468       .  S
N194        C195   1.360       .  A
C195        N196   1.357       .  A
C195        C797   1.477       .  S
N196        C197   1.353       .  A
C197        N198   1.353       .  A
C197        C228   1.450       .  S
C199        N200   1.358       .  A
C199        N204   1.356       .  A
C199       C3734   1.484       .  S
N200        C201   1.357       .  A
C201        N202   1.357       .  A
C201        C806   1.480       .  S
N202        C203   1.354       .  A
C203        N204   1.354       .  A
C203       C2969   1.452       .  S
Zr205       O206   2.434       .  S
Zr205       O207   2.418       .  S
Zr205       O208   2.443       .  S
Zr205       O211   2.423       .  S
Zr205       O214   2.386       .  S
Zr205      O1581   2.376       .  S
Zr205      O1583   2.396       .  S
Zr205      O1584   2.401       .  S
O206        H262   0.990       .  S
O206        H270   0.990       .  S
O207        C227   1.280       .  A
O208       C1597   1.287       .  A
O209       Zr219   2.416       .  S
O209        C228   1.282       .  A
O210       Zr218   2.446       .  S
O210        C229   1.284   1_545  A
O211        C228   1.282       .  A
O212       Zr220   2.422       .  S
O212        C227   1.283       .  A
O213       Zr218   2.391   1_565  S
O213      Zr1573   2.379       .  S
O213      Zr1588   2.385       .  S
O214       Zr219   2.392       .  S
O214       Zr220   2.371       .  S
O214        H249   0.966       .  S
O215       Zr218   2.395       .  S
O215       Zr235   2.396       .  S
O215      Zr1573   2.403   1_545  S
O215        H252   0.966       .  S
O216       Zr235   2.398       .  S
O216      Zr1573   2.409   1_545  S
O216      Zr1587   2.394       .  S
Zr217       O242   2.441       .  S
Zr217       O236   2.422       .  S
Zr217       O244   2.442       .  S
Zr217       O232   2.438       .  S
Zr217       O226   2.383       .  S
Zr217      O2959   2.389       .  S
Zr217      O2960   2.405   1_455  S
Zr217      O2961   2.382   1_455  S
Zr218       O237   2.438       .  S
Zr218       O230   2.435       .  S
Zr218       O231   2.412       .  S
Zr218       O224   2.402       .  S
Zr218       O225   2.394       .  S
Zr219       O243   2.437       .  S
Zr219      O2957   2.436       .  S
Zr219      O4349   2.440       .  S
Zr219      O1584   2.391       .  S
Zr219      O1591   2.390       .  S
Zr219      O4330   2.382       .  S
Zr220       O246   2.437       .  S
Zr220      O1615   2.435       .  S
Zr220      O1590   2.436       .  S
Zr220      O1581   2.377       .  S
Zr220      O1591   2.390       .  S
Zr220      O1592   2.394       .  S
O221      Zr2955   2.435       .  S
O221        H258   0.991       .  S
O222      Zr1588   2.436       .  S
O222       H1621   0.990       .  S
O222       H1635   0.990       .  S
O223      Zr2953   2.388       .  S
O223      Zr1587   2.389       .  S
O223      Zr1588   2.389   1_545  S
O224      Zr2953   2.405       .  S
O224      Zr1588   2.386   1_545  S
O224        H250   0.966       .  S
O225       Zr235   2.366       .  S
O225      Zr2953   2.384       .  S
O226      Zr4323   2.384   1_455  S
O226      Zr2971   2.381   1_455  S
O226        H251   0.966       .  S
C229       O1576   1.289       .  A
O230        H266   0.990       .  S
O231        C233   1.281       .  A
O232       C2969   1.282   1_455  A
C233       C2939   1.446       .  S
C233       O2968   1.281       .  A
O234       Zr235   2.439       .  S
O234        H263   0.990       .  S
Zr235       O238   2.437       .  S
Zr235      O2975   2.439       .  S
Zr235      O2976   2.432       .  S
Zr235      O2962   2.378       .  S
O236        C241   1.281       .  A
O237        H254   0.990       .  S
O237        H269   0.990       .  S
O238       H2991   0.990       .  S
O239      Zr2971   2.439       .  S
O239        H259   0.990   1_655  S
O239        H268   0.990       .  S
O240      Zr2971   2.415   1_455  S
O240        C241   1.281       .  A
O242        H261   0.990       .  S
O242        H265   0.990       .  S
O243        H264   0.990       .  S
O243       H2993   0.990       .  S
O244        C248   1.287       .  A
O245      Zr4323   2.445   1_455  S
O245        C248   1.285       .  A
O246        H256   0.990       .  S
O247      Zr1588   2.436   1_545  S
O247        H260   0.990       .  S
H253       O1590   0.990       .  S
H255       O2974   0.990       .  S
H257       O2979   0.990       .  S
H267       O1590   0.990       .  S
C271        N272   1.356       .  A
C271        N276   1.358       .  A
C271        C765   1.464       .  S
N272        C273   1.354       .  A
C273        N274   1.354       .  A
C273        C742   1.478       .  S
N274        C275   1.354       .  A
C275        N276   1.359       .  A
C275        C330   1.457       .  S
C277        N278   1.360       .  A
C277        N282   1.358       .  A
C277        C701   1.471       .  S
N278        C279   1.359       .  A
C279        N280   1.351       .  A
C279        C733   1.482       .  S
N280        C281   1.351       .  A
C281        N282   1.355       .  A
C281        C335   1.455       .  S
C283        N284   1.359       .  A
C283        N288   1.355       .  A
C283        C678   1.473       .  S
N284        C285   1.360       .  A
C285        N286   1.360       .  A
C285        C331   1.462       .  S
N286        C287   1.360       .  A
C287        N288   1.354       .  A
C287       C2014   1.479       .  S
C289        N290   1.359       .  A
C289        N294   1.355       .  A
C289        C605   1.474       .  S
N290        C291   1.358       .  A
C291        N292   1.357       .  A
C291        C637   1.481       .  S
N292        C293   1.353       .  A
C293        N294   1.354       .  A
C293        C350   1.451       .  S
C295        N296   1.350       .  A
C295        N300   1.349       .  A
C295        C573   1.477       .  S
N296        C297   1.356       .  A
C297        N298   1.372       .  A
C297        C550   1.491       .  S
N298        C299   1.370       .  A
C299        N300   1.358       .  A
C299        C329   1.478       .  S
C301        N302   1.351       .  A
C301        N306   1.351       .  A
C301        C509   1.476       .  S
N302        C303   1.354       .  A
C303        N304   1.368       .  A
C303        C541   1.488       .  S
N304        C305   1.368       .  A
C305        N306   1.355       .  A
C305        C343   1.473       .  S
Zr307       O308   2.442       .  S
Zr307       O309   2.465       .  S
Zr307       O310   2.456       .  S
Zr307       O313   2.429       .  S
Zr307       O315   2.384       .  S
Zr307       O316   2.389       .  S
Zr307       O317   2.414       .  S
Zr307       O318   2.406       .  S
O308        H364   0.990       .  S
O308        H372   0.990       .  S
O309        C329   1.287       .  A
O310        C331   1.286       .  A
O311       Zr321   2.420       .  S
O311        C330   1.283       .  A
O312       Zr320   2.411       .  S
O312        C331   1.279       .  A
O313        C330   1.282       .  A
O314       Zr322   2.414       .  S
O314        C329   1.282       .  A
O315       Zr320   2.396       .  S
O315       Zr322   2.379       .  S
O316       Zr321   2.382       .  S
O316       Zr322   2.374       .  S
O316        H351   0.965       .  S
O317       Zr320   2.397       .  S
O317       Zr337   2.407       .  S
O317        H354   0.966       .  S
O318       Zr321   2.389       .  S
O318       Zr337   2.391       .  S
Zr319       O344   2.439       .  S
Zr319       O338   2.430       .  S
Zr319       O346   2.425       .  S
Zr319       O334   2.416       .  S
Zr319       O325   2.399       .  S
Zr319       O326   2.403       .  S
Zr319       O327   2.379       .  S
Zr319       O328   2.383       .  S
Zr320       O339   2.437       .  S
Zr320       O332   2.435       .  S
Zr320       O333   2.416       .  S
Zr320       O326   2.392       .  S
Zr320       O327   2.384       .  S
Zr321       O323   2.436       .  S
Zr321       O345   2.438       .  S
Zr321       O347   2.419       .  S
Zr321       O325   2.391       .  S
Zr321       O328   2.387       .  S
Zr322       O348   2.437       .  S
Zr322       O349   2.435       .  S
Zr322       O324   2.436       .  S
Zr322       O325   2.386       .  S
Zr322       O326   2.396       .  S
O323        H360   0.990       .  S
O324        H355   0.990       .  S
O324        H369   0.990       .  S
O326        H352   0.966       .  S
O327       Zr337   2.368       .  S
O328       Zr337   2.377       .  S
O328        H353   0.966       .  S
O332        H368   0.990       .  S
O333        C335   1.282       .  A
O334        C335   1.280       .  A
O336       Zr337   2.439       .  S
O336        H365   0.990       .  S
Zr337       O340   2.438       .  S
Zr337       O341   2.440       .  S
Zr337       O342   2.435       .  S
O338        C343   1.281       .  A
O339        H356   0.990       .  S
O339        H371   0.990       .  S
O340        H357   0.990       .  S
O341        H361   0.990       .  S
O341        H370   0.990       .  S
O342        C343   1.286       .  A
O344        H363   0.991       .  S
O344        H367   0.990       .  S
O345        H359   0.990       .  S
O345        H366   0.990       .  S
O346        C350   1.281       .  A
O347        C350   1.281       .  A
O348        H358   0.990       .  S
O349        H362   0.990       .  S
Zr373      O3110   2.441       .  S
Zr373       O375   2.421       .  S
Zr373      O1744   2.422   1_545  S
Zr373      O3115   2.402       .  S
Zr373       O381   2.373       .  S
Zr373       O382   2.382       .  S
Zr373       O383   2.395   1_545  S
Zr373      O3120   2.396       .  S
O374      Zr3109   2.439   1_465  S
O374        H430   0.990   1_465  S
O374        H438   0.990   1_455  S
O375        C395   1.282       .  A
O376      Zr1741   2.407       .  S
O376        C397   1.281       .  A
O377       Zr387   2.449       .  S
O377        C396   1.287       .  A
O378       Zr386   2.438       .  S
O378        C397   1.284       .  A
O379      Zr3109   2.401   1_455  S
O379        C396   1.280       .  A
O380       Zr388   2.416       .  S
O380        C395   1.280       .  A
O381       Zr388   2.381       .  S
O381      Zr1754   2.390   1_545  S
O382       Zr388   2.378       .  S
O382      Zr3123   2.384       .  S
O382        H417   0.966       .  S
O383      Zr1754   2.401       .  S
O383      Zr3139   2.392       .  S
O383       H1788   0.965       .  S
O384       Zr387   2.400       .  S
O384       Zr403   2.398   1_445  S
O384      Zr3109   2.399   1_455  S
Zr385       O410   2.438       .  S
Zr385       O404   2.417       .  S
Zr385       O412   2.408       .  S
Zr385      O1768   2.416   1_545  S
Zr385       O391   2.397   1_554  S
Zr385      O1760   2.397   1_554  S
Zr385      O1761   2.372   1_545  S
Zr385      O3130   2.379       .  S
Zr386       O405   2.436       .  S
Zr386       O398   2.434       .  S
Zr386       O399   2.425   1_556  S
Zr386       O392   2.404       .  S
Zr386       O393   2.393   1_556  S
Zr386      O1749   2.391       .  S
Zr386      O1751   2.399       .  S
Zr387       O389   2.436       .  S
Zr387      O3147   2.435       .  S
Zr387       O413   2.456   1_556  S
Zr387       O394   2.387   1_556  S
Zr387      O3118   2.391       .  S
Zr387      O3127   2.391   1_455  S
Zr388       O414   2.435       .  S
Zr388       O415   2.436       .  S
Zr388      O1758   2.437       .  S
Zr388       O391   2.392       .  S
Zr388      O1760   2.391       .  S
O389        H426   0.990   1_556  S
O390      Zr1756   2.435       .  S
O390        H421   0.991       .  S
O390        H435   0.989       .  S
O391      Zr3123   2.395       .  S
O392      Zr1753   2.399   1_556  S
O392      Zr1756   2.403       .  S
O392        H418   0.961   1_556  S
O393      Zr1753   2.370       .  S
O393      Zr4507   2.373   1_554  S
O394       Zr403   2.377   1_444  S
O394      Zr3121   2.379   1_455  S
O394        H419   0.965       .  S
C395        C710   1.464       .  S
C396        C582   1.470       .  S
C397        C614   1.474       .  S
O398        H434   0.990       .  S
O399        C401   1.282       .  A
O400      Zr1753   2.421       .  S
O400        C401   1.282       .  A
C401       C1085   1.468       .  S
O402       Zr403   2.436   1_455  S
O402        H431   0.990       .  S
Zr403       O407   2.436   1_655  S
Zr403      O1774   2.436   1_556  S
Zr403       O408   2.430   1_656  S
Zr403      O3119   2.403       .  S
Zr403      O4497   2.375   1_556  S
O404       C3145   1.280   1_545  A
O405        H422   0.990       .  S
O405        H437   0.989       .  S
O406      Zr1771   2.435       .  S
O406        H423   0.990   1_556  S
O407        H427   0.990   1_556  S
O407        H436   0.990   1_566  S
O408        C409   1.283   1_455  A
C409       C1350   1.474   1_655  S
C409       O3140   1.281       .  A
O410        H429   0.989       .  S
O410        H433   0.991       .  S
O411      Zr3123   2.437       .  S
O411        H432   0.989       .  S
O411       H3161   0.990       .  S
O412        C416   1.282       .  A
O413       C3152   1.288       .  A
O414        H424   0.989       .  S
O415        H428   0.990   1_556  S
C416       C3990   1.471       .  S
C416       O3149   1.283       .  A
H420       O1751   0.965       .  S
H425       O3147   0.990       .  S
Zr439       O440   2.441       .  S
Zr439       O441   2.424       .  S
Zr439       O442   2.414       .  S
Zr439       O445   2.413       .  S
Zr439       O447   2.376       .  S
Zr439       O448   2.375       .  S
Zr439       O449   2.402       .  S
Zr439       O450   2.395       .  S
O440        H496   0.991       .  S
O440        H504   0.990       .  S
O441        C461   1.283       .  A
O442        C463   1.280       .  A
O443       Zr453   2.430       .  S
O443        C462   1.283       .  A
O444       Zr452   2.430       .  S
O444        C463   1.282       .  A
O445        C462   1.281       .  A
O446       Zr454   2.414       .  S
O446        C461   1.278       .  A
O447       Zr452   2.402       .  S
O447       Zr454   2.383       .  S
O448       Zr453   2.389       .  S
O448       Zr454   2.379       .  S
O448        H483   0.967       .  S
O449       Zr452   2.398       .  S
O449       Zr469   2.391       .  S
O449        H486   0.966       .  S
O450       Zr453   2.393       .  S
O450       Zr469   2.394       .  S
Zr451       O476   2.440       .  S
Zr451       O470   2.402       .  S
Zr451       O478   2.416       .  S
Zr451       O466   2.412       .  S
Zr451       O457   2.391       .  S
Zr451       O458   2.390       .  S
Zr451       O459   2.376       .  S
Zr451       O460   2.377       .  S
Zr452       O471   2.437       .  S
Zr452       O464   2.435       .  S
Zr452       O465   2.433       .  S
Zr452       O458   2.400       .  S
Zr452       O459   2.382       .  S
Zr453       O455   2.435       .  S
Zr453       O477   2.436       .  S
Zr453       O479   2.426       .  S
Zr453       O457   2.400       .  S
Zr453       O460   2.383       .  S
Zr454       O480   2.436       .  S
Zr454       O481   2.437       .  S
Zr454       O456   2.437       .  S
Zr454       O457   2.400       .  S
Zr454       O458   2.390       .  S
O455        H492   0.990       .  S
O456        H487   0.990       .  S
O456        H501   0.990       .  S
O458        H484   0.966       .  S
O459       Zr469   2.374       .  S
O460       Zr469   2.365       .  S
O460        H485   0.965       .  S
C461        C669   1.490       .  S
C462        C518   1.468       .  S
C463        C774   1.464       .  S
O464        H500   0.990       .  S
O465        C467   1.283       .  A
O466        C467   1.281       .  A
C467        C957   1.462       .  S
O468       Zr469   2.438       .  S
O468        H497   0.990       .  S
Zr469       O472   2.437       .  S
Zr469       O473   2.439       .  S
Zr469       O474   2.427       .  S
O470        C475   1.279       .  A
O471        H488   0.990       .  S
O471        H503   0.990       .  S
O472        H489   0.990       .  S
O473        H493   0.990       .  S
O473        H502   0.990       .  S
O474        C475   1.283       .  A
C475        C893   1.465       .  S
O476        H495   0.990       .  S
O476        H499   0.990       .  S
O477        H491   0.990       .  S
O477        H498   0.990       .  S
O478        C482   1.283       .  A
O479        C482   1.283       .  A
O480        H490   0.990       .  S
O481        H494   0.990       .  S
C482        C829   1.470       .  S
C505        C506   1.398       .  A
C505        C510   1.396       .  A
C505       H3251   1.085       .  S
C506        C511   1.469       .  S
C506        C507   1.405       .  A
C507        C508   1.402       .  A
C507        C512   1.505       .  S
C508        C509   1.409       .  A
C508        H513   1.084       .  S
C509        C510   1.417       .  A
C510        C514   1.509       .  S
C511        C520   1.401       .  A
C511       C3252   1.409       .  A
C512        H528   1.110       .  S
C512        H529   1.109       .  S
C512        H530   1.111       .  S
C514        H525   1.109       .  S
C514        H526   1.111       .  S
C514        H527   1.110       .  S
H515       C3241   1.085       .  S
C516        C517   1.399       .  A
C516       C3247   1.410       .  A
C516        C521   1.507       .  S
C517        C518   1.402       .  A
C517        H522   1.085       .  S
C518        C519   1.416       .  A
C519       C3256   1.403       .  A
C519       C3259   1.508       .  S
C520       C3255   1.402       .  A
C520        H524   1.085       .  S
C521        H531   1.111       .  S
C521        H532   1.110       .  S
C521        H533   1.110       .  S
C523       C3255   1.507       .  S
C523        H534   1.111       .  S
C523        H536   1.110       .  S
C523       H3271   1.106       .  S
H535       C3259   1.107       .  S
C537        C538   1.400       .  A
C537        C542   1.405       .  A
C537        H547   1.084       .  S
C538        C543   1.486       .  S
C538       C3275   1.413       .  A
C539        C540   1.407       .  A
C539       C3274   1.413       .  A
C539        C544   1.506       .  S
C540        C541   1.404       .  A
C540        H545   1.084       .  S
C541       C3278   1.422       .  A
C542       C3277   1.419       .  A
C542        C546   1.510       .  S
C543        C548   1.414       .  A
C543        C552   1.396       .  A
C544        H561   1.109       .  S
C544        H562   1.110       .  S
C544       H3296   1.111       .  S
C546        H557   1.107       .  S
C546        H558   1.111       .  S
C546       H3295   1.110       .  S
C548        C549   1.411       .  A
C548        C553   1.506       .  S
C549        C550   1.405       .  A
C549        H554   1.084       .  S
C550        C551   1.424       .  A
C551        C552   1.402       .  A
C551        C555   1.510       .  S
C552        H556   1.084       .  S
C553        H563   1.111       .  S
C553        H564   1.110       .  S
C553        H565   1.109       .  S
C555        H566   1.111       .  S
C555        H567   1.110       .  S
C555        H568   1.108       .  S
H559       C3282   1.111       .  S
H560       C3280   1.110       .  S
C569        C570   1.399       .  A
C569        C574   1.405       .  A
C569        H579   1.084       .  S
C570        C575   1.476       .  S
C570        C571   1.411       .  A
C571        C572   1.399       .  A
C571        C576   1.508       .  S
C572        C573   1.402       .  A
C572        H577   1.084       .  S
C573        C574   1.419       .  A
C574        C578   1.507       .  S
C575        C580   1.409       .  A
C575        C584   1.402       .  A
C576        H592   1.110       .  S
C576        H593   1.109       .  S
C576        H594   1.111       .  S
C578        H589   1.109       .  S
C578        H590   1.111       .  S
C578        H591   1.111       .  S
C580        C581   1.400       .  A
C580        C585   1.507       .  S
C581        C582   1.404       .  A
C581        H586   1.084       .  S
C582        C583   1.412       .  A
C583        C584   1.404       .  A
C583       C3323   1.506       .  S
C584        H588   1.084       .  S
C585        H595   1.111       .  S
C585        H596   1.110       .  S
C585        H597   1.110       .  S
C587       C3319   1.506       .  S
C587        H598   1.111       .  S
C587        H599   1.110       .  S
C587        H600   1.110       .  S
C601        C602   1.400       .  A
C601        C606   1.404       .  A
C601        H611   1.084       .  S
C602        C607   1.476       .  S
C602        C603   1.412       .  A
C603        C604   1.399       .  A
C603        C608   1.508       .  S
C604        C605   1.401       .  A
C604        H609   1.084       .  S
C605        C606   1.417       .  A
C606        C610   1.508       .  S
C607        C612   1.410       .  A
C607        C616   1.402       .  A
C608        H624   1.110       .  S
C608        H625   1.110       .  S
C608       H3362   1.111       .  S
C610        H621   1.110       .  S
C610        H622   1.111       .  S
C610        H623   1.109       .  S
C612        C613   1.397       .  A
C612        C617   1.508       .  S
C613        C614   1.404       .  A
C613        H618   1.085       .  S
C614        C615   1.415       .  A
C615        C616   1.405       .  A
C615        C619   1.505       .  S
C616        H620   1.084       .  S
C617        H627   1.109       .  S
C617        H628   1.110       .  S
C617        H629   1.110       .  S
C619        H630   1.110       .  S
C619        H631   1.110       .  S
C619        H632   1.111       .  S
H626       C3344   1.111       .  S
C633        C634   1.402       .  A
C633       C3374   1.406       .  A
C633        H643   1.084       .  S
C634        C639   1.482       .  S
C634        C635   1.410       .  A
C635       C3372   1.400   1_455  A
C635        C640   1.507       .  S
C636        C637   1.406       .  A
C636       C3371   1.397       .  A
C636        H641   1.084       .  S
C637        C638   1.418       .  A
C638       C3369   1.405       .  A
C638        C642   1.507       .  S
C639        C644   1.412       .  A
C639        C648   1.400       .  A
C640        H656   1.110       .  S
C640        H657   1.110       .  S
C640        H658   1.111   1_455  S
C642        H653   1.111       .  S
C642        H654   1.110       .  S
C642        H655   1.109       .  S
C644        C645   1.403       .  A
C644       C3385   1.507       .  S
C645        C646   1.402       .  A
C645        H650   1.084       .  S
C646       C1655   1.480       .  S
C646        C647   1.419       .  A
C647        C648   1.404       .  A
C647        C651   1.508       .  S
C648        H652   1.084       .  S
C649       C3380   1.507       .  S
C649        H659   1.111       .  S
C649        H660   1.110       .  S
C649        H661   1.111       .  S
C651        H664   1.109       .  S
C651       H2030   1.111       .  S
C651       H2031   1.110       .  S
H662       C2019   1.111       .  S
H663       C2019   1.110       .  S
C665        C666   1.398       .  A
C665        C670   1.405       .  A
C665       H2043   1.084       .  S
C666        C671   1.474       .  S
C666        C667   1.407       .  A
C667        C668   1.397       .  A
C667        C672   1.508       .  S
C668        C669   1.409       .  A
C668        H673   1.083       .  S
C669        C670   1.424       .  A
C670        C674   1.508       .  S
C671        C676   1.409       .  A
C671       C2048   1.400       .  A
C672        H688   1.110       .  S
C672        H689   1.110       .  S
C672        H690   1.111       .  S
C674        H685   1.111       .  S
C674        H687   1.110       .  S
C674       H2054   1.109       .  S
H675       C2033   1.084       .  S
C676        C677   1.402       .  A
C676        C681   1.506       .  S
C677       C2046   1.404       .  A
C677        H682   1.084       .  S
C678        C679   1.415       .  A
C678       C2045   1.405       .  A
C679        C680   1.398       .  A
C679        C683   1.508       .  S
C680       C2039   1.399       .  A
C680        H684   1.085       .  S
C681        H691   1.111       .  S
C681        H692   1.110       .  S
C681        H693   1.110       .  S
C683        H694   1.111       .  S
C683        H695   1.108       .  S
C683        H696   1.110       .  S
H686       C2042   1.110       .  S
C697        C698   1.400       .  A
C697        C702   1.401       .  A
C697        H707   1.084       .  S
C698        C703   1.471       .  S
C698        C699   1.409       .  A
C699        C700   1.400       .  A
C699        C704   1.507       .  S
C700        C701   1.404       .  A
C700        H705   1.084       .  S
C701        C702   1.413       .  A
C702        C706   1.506       .  S
C703        C708   1.411       .  A
C703        C712   1.401       .  A
C704        H720   1.110       .  S
C704        H721   1.110       .  S
C704        H722   1.111       .  S
C706        H718   1.109       .  S
C706        H719   1.109       .  S
C706       H2085   1.111       .  S
C708        C709   1.396       .  A
C708        C713   1.508       .  S
C709        C710   1.399       .  A
C709        H714   1.085       .  S
C710        C711   1.413       .  A
C711        C712   1.404       .  A
C711        C715   1.507       .  S
C712        H716   1.084       .  S
C713        H725   1.110       .  S
C713       H2091   1.111       .  S
C713       H2092   1.110       .  S
C715        H726   1.109       .  S
C715        H727   1.110       .  S
C715        H728   1.111       .  S
H717       C2074   1.111       .  S
H723       C2081   1.111       .  S
H724       C2081   1.110       .  S
C729        C734   1.399       .  A
C729       C2098   1.396   1_545  A
C729        H739   1.085   1_545  S
C730        C735   1.470       .  S
C730        C731   1.409       .  A
C730       C2097   1.398       .  A
C731       C2100   1.397       .  A
C731        C736   1.508       .  S
C732        C733   1.407       .  A
C732       C2099   1.403       .  A
C732       H2105   1.084       .  S
C733        C734   1.422       .  A
C734        C738   1.510       .  S
C735        C740   1.406       .  A
C735        C744   1.399       .  A
C736        H752   1.110       .  S
C736        H753   1.110       .  S
C736        H754   1.111       .  S
H737       C2100   1.084       .  S
C738        H749   1.110       .  S
C738        H750   1.111       .  S
C738        H751   1.109       .  S
C740        C741   1.400       .  A
C740        C745   1.506       .  S
C741        C742   1.407       .  A
C741        H746   1.084       .  S
C742        C743   1.418       .  A
C743        C744   1.401       .  A
C743        C747   1.508       .  S
C744       H2116   1.084       .  S
C745        H755   1.111       .  S
C745        H756   1.110       .  S
C745        H757   1.110       .  S
C747        H759   1.110       .  S
C747        H760   1.111       .  S
C747       H2126   1.110       .  S
H748       C2112   1.084       .  S
H758       C2115   1.109       .  S
C761        C762   1.403       .  A
C761        C766   1.401       .  A
C761        H771   1.084       .  S
C762        C767   1.475       .  S
C762        C763   1.409       .  A
C763        C764   1.402       .  A
C763        C768   1.506       .  S
C764        C765   1.402       .  A
C764        H769   1.084       .  S
C765        C766   1.408       .  A
C766        C770   1.506       .  S
C767        C772   1.409       .  A
C767        C776   1.402       .  A
C768        H784   1.110       .  S
C768        H785   1.111       .  S
C768        H786   1.111       .  S
C770        H781   1.111       .  S
C770        H782   1.110       .  S
C770        H783   1.111       .  S
C772        C773   1.404       .  A
C772        C777   1.505       .  S
C773        C774   1.403       .  A
C773        H778   1.084       .  S
C774        C775   1.410       .  A
C775        C776   1.399       .  A
C775        C779   1.509       .  S
C776        H780   1.084       .  S
C777        H787   1.111       .  S
C777        H788   1.110       .  S
C777        H789   1.110       .  S
C779        H790   1.110       .  S
C779        H791   1.110       .  S
C779        H792   1.111       .  S
C793        C794   1.401       .  A
C793        C798   1.401       .  A
C793        H803   1.084       .  S
C794        C799   1.474       .  S
C794        C795   1.409       .  A
C795        C796   1.398       .  A
C795        C800   1.508       .  S
C796        C797   1.407       .  A
C796        H801   1.084       .  S
C797        C798   1.415       .  A
C798        C802   1.507       .  S
C799        C808   1.399       .  A
C799       C3540   1.412       .  A
C800        H816   1.110       .  S
C800        H818   1.111       .  S
C800       H3553   1.110       .  S
C802        H813   1.110       .  S
C802        H814   1.111       .  S
C802        H815   1.108       .  S
C804        C805   1.401       .  A
C804       C3535   1.408   1_455  A
C804        C809   1.507       .  S
C805        C806   1.406   1_455  A
C805        H810   1.084       .  S
C806       C3543   1.420       .  A
C807        C808   1.400       .  A
C807       C3542   1.416       .  A
C807        C811   1.509       .  S
C808        H812   1.085       .  S
C809        H819   1.111       .  S
C809        H820   1.110       .  S
C809        H821   1.110       .  S
C811        H822   1.110       .  S
C811        H823   1.106       .  S
C811        H824   1.110       .  S
H817       C3536   1.110       .  S
C825        C826   1.403       .  A
C825       C3566   1.405       .  A
C825        H835   1.084       .  S
C826        C831   1.473       .  S
C826       C3563   1.408       .  A
C827        C828   1.397       .  A
C827       C3562   1.412       .  A
C827        C832   1.510       .  S
C828        C829   1.403       .  A
C828        H833   1.085       .  S
C829        C830   1.416       .  A
C830       C3561   1.402       .  A
C830        C834   1.508       .  S
C831        C836   1.409       .  A
C831        C840   1.399       .  A
C832        H848   1.110       .  S
C832        H850   1.111       .  S
C832       H3585   1.108   1_455  S
C834        H846   1.111       .  S
C834        H847   1.105       .  S
C834       H3581   1.110       .  S
C836        C837   1.403       .  A
C836        C841   1.506       .  S
C837        C838   1.403       .  A
C837        H842   1.084       .  S
C838        C839   1.416       .  A
C839        C840   1.398       .  A
C839        C843   1.510       .  S
C840       H3580   1.085       .  S
C841        H851   1.111       .  S
C841        H852   1.110       .  S
C841        H853   1.109       .  S
C843        H855   1.107       .  S
C843       H3590   1.110       .  S
C843       H3592   1.111       .  S
H844       C3576   1.085       .  S
H845       C3570   1.110       .  S
H849       C3568   1.109       .  S
H854       C3579   1.111       .  S
H856       C3579   1.111       .  S
C857        C858   1.398       .  A
C857        C862   1.402       .  A
C857        H867   1.085       .  S
C858        C863   1.478       .  S
C858        C859   1.409       .  A
C859        C860   1.404       .  A
C859        C864   1.507       .  S
C860        C861   1.407       .  A
C860        H865   1.084       .  S
C861        C862   1.422       .  A
C862        C866   1.509       .  S
C863        C868   1.411       .  A
C863        C872   1.399       .  A
C864        H880   1.110       .  S
C864        H881   1.110       .  S
C864        H882   1.111       .  S
C866        H877   1.109       .  S
C866        H878   1.111       .  S
C866        H879   1.110       .  S
C868        C869   1.402       .  A
C868        C873   1.506       .  S
C869        C870   1.403       .  A
C869        H874   1.084       .  S
C870        C871   1.418       .  A
C871        C872   1.400       .  A
C871        C875   1.510       .  S
C872        H876   1.085       .  S
C873        H883   1.111       .  S
C873        H884   1.110       .  S
C873        H885   1.110       .  S
C875        H886   1.111       .  S
C875        H887   1.106       .  S
C875        H888   1.110       .  S
C889        C890   1.399       .  A
C889        C894   1.395       .  A
C889        H899   1.085       .  S
C890        C895   1.468       .  S
C890        C891   1.407       .  A
C891        C892   1.401       .  A
C891        C896   1.505       .  S
C892        C893   1.404       .  A
C892        H897   1.084       .  S
C893        C894   1.416       .  A
C894        C898   1.510       .  S
C895        C900   1.410       .  A
C895        C904   1.399       .  A
C896        H912   1.110       .  S
C896        H913   1.110       .  S
C896        H914   1.111       .  S
C898        H909   1.110       .  S
C898        H910   1.111       .  S
C898        H911   1.106       .  S
C900        C901   1.401       .  A
C900        C905   1.506       .  S
C901        C902   1.401       .  A
C901        H906   1.084       .  S
C902        C903   1.412       .  A
C903        C904   1.396       .  A
C903        C907   1.508       .  S
C904        H908   1.085       .  S
C905        H915   1.111       .  S
C905        H916   1.110       .  S
C905        H917   1.110       .  S
C907        H918   1.111       .  S
C907        H919   1.108       .  S
C907        H920   1.110       .  S
C921        C922   1.397       .  A
C921        C926   1.405   1_545  A
C921        H931   1.084       .  S
C922        C927   1.493       .  S
C922        C923   1.415       .  A
C923        C924   1.413   1_545  A
C923       C2296   1.505       .  S
C924        C925   1.407       .  A
C924       H2297   1.084       .  S
C925        C926   1.426       .  A
C926        C930   1.510       .  S
C927        C932   1.414       .  A
C927        C936   1.401       .  A
C928       C2291   1.505       .  S
C928        H944   1.110       .  S
C928        H945   1.110       .  S
C928        H946   1.111       .  S
H929       C2292   1.084       .  S
C930        H941   1.109       .  S
C930        H942   1.111   1_565  S
C930        H943   1.110   1_565  S
C932        C933   1.411       .  A
C932       C2305   1.505   1_545  S
C933        C934   1.405       .  A
C933       H2306   1.084       .  S
C934        C935   1.417       .  A
C935        C936   1.407       .  A
C935        C939   1.505       .  S
C936        H940   1.084       .  S
C937       C2300   1.505       .  S
C937        H947   1.111       .  S
C937        H949   1.110       .  S
C937       H2316   1.110       .  S
H938       C2301   1.084       .  S
C939        H950   1.111       .  S
C939        H951   1.111       .  S
C939        H952   1.104       .  S
H948       C2305   1.111       .  S
C953        C954   1.400       .  A
C953        C958   1.397       .  A
C953       H2331   1.085       .  S
C954        C959   1.473       .  S
C954        C955   1.409       .  A
C955        C956   1.403       .  A
C955        C960   1.505       .  S
C956        C957   1.402       .  A
C956        H961   1.084       .  S
C957        C958   1.412       .  A
C958        C962   1.508       .  S
C959        C964   1.408       .  A
C959        C968   1.396       .  A
C960        H976   1.110       .  S
C960        H977   1.110       .  S
C960        H978   1.111       .  S
C962        H973   1.110       .  S
C962        H975   1.108       .  S
C962       H2342   1.110       .  S
H963       C2321   1.085       .  S
C964        C965   1.400       .  A
C964        C969   1.508       .  S
C965       C2334   1.409       .  A
C965        H970   1.084       .  S
C966        C967   1.421       .  A
C966       C2333   1.407       .  A
C967       C2336   1.403       .  A
C967        C971   1.505       .  S
C968       C2335   1.404       .  A
C968        H972   1.084       .  S
C969        H979   1.111       .  S
C969        H980   1.110       .  S
C969        H981   1.110       .  S
C971        H982   1.111       .  S
C971        H983   1.110       .  S
C971        H984   1.107       .  S
H974       C2330   1.110       .  S
C985        C986   1.398       .  A
C985        C990   1.398       .  A
C985        H995   1.085       .  S
C986        C991   1.476       .  S
C986        C987   1.407       .  A
C987        C988   1.406       .  A
C987        C992   1.506       .  S
C988        C989   1.411       .  A
C988        H993   1.084       .  S
C989        C990   1.421       .  A
C990        C994   1.510       .  S
C991        C996   1.410       .  A
C991       C1000   1.400       .  A
C992       H3744   1.110       .  S
C992       H3745   1.111       .  S
C992       H3746   1.111       .  S
C994       H1005   1.111       .  S
C994       H1006   1.109       .  S
C994       H1007   1.109       .  S
C996        C997   1.401       .  A
C996       C1001   1.506       .  S
C997        C998   1.404       .  A
C997       H1002   1.084       .  S
C998       C2935   1.474       .  S
C998        C999   1.417       .  A
C999       C1000   1.401       .  A
C999       C3739   1.509       .  S
C1000      H1004   1.084       .  S
C1001      H1011   1.111       .  S
C1001      H1012   1.109       .  S
C1001      H1013   1.110       .  S
C1003      C3735   1.509       .  S
C1003      H1015   1.110       .  S
C1003      H1016   1.111       .  S
C1003      H3750   1.110       .  S
H1008      C3728   1.109       .  S
H1009      C3728   1.110       .  S
H1010      C3728   1.111       .  S
H1014      C3739   1.111       .  S
C1017      C1018   1.400       .  A
C1017      C1022   1.398       .  A
C1017      H1027   1.085       .  S
C1018      C1023   1.469       .  S
C1018      C1019   1.409       .  A
C1019      C1020   1.400       .  A
C1019      C1024   1.506       .  S
C1020      C1021   1.402       .  A
C1020      H1025   1.084       .  S
C1021      C1022   1.412       .  A
C1022      C1026   1.508       .  S
C1023      C1028   1.408       .  A
C1023      C1032   1.399       .  A
C1024      H1040   1.110       .  S
C1024      H1041   1.110       .  S
C1024      H1042   1.111       .  S
C1026      H1037   1.111       .  S
C1026      H1038   1.110       .  S
C1026      H1039   1.108       .  S
C1028      C1029   1.402       .  A
C1028      C1033   1.505       .  S
C1029      C1030   1.402       .  A
C1029      H1034   1.084       .  S
C1030      C1031   1.413       .  A
C1031      C1032   1.397       .  A
C1031      C1035   1.508       .  S
C1032      H1036   1.085       .  S
C1033      H1043   1.111       .  S
C1033      H1044   1.110       .  S
C1033      H1045   1.110       .  S
C1035      H1046   1.111       .  S
C1035      H1047   1.107       .  S
C1035      H1048   1.110       .  S
C1049      C1050   1.403       .  A
C1049      C1054   1.403       .  A
C1049      H1059   1.084       .  S
C1050      C1055   1.486       .  S
C1050      C1051   1.414       .  A
C1051      C1052   1.407       .  A
C1051      C1056   1.506       .  S
C1052      C1053   1.402       .  A
C1052      H1057   1.084       .  S
C1053      C1054   1.411       .  A
C1054      C1058   1.507       .  S
C1055      C1060   1.412       .  A
C1055      C1064   1.402       .  A
C1056      H1072   1.109       .  S
C1056      H1073   1.110       .  S
C1056      H1074   1.111       .  S
C1058      H1069   1.110       .  S
C1058      H1070   1.111       .  S
C1058      H1071   1.110       .  S
C1060      C1061   1.407       .  A
C1060      C1065   1.506       .  S
C1061      C1062   1.406       .  A
C1061      H1066   1.084       .  S
C1062      C1063   1.414       .  A
C1063      C1064   1.401       .  A
C1063      C1067   1.505       .  S
C1064      H1068   1.084       .  S
C1065      H1075   1.111       .  S
C1065      H1076   1.109       .  S
C1065      H1077   1.110       .  S
C1067      H1078   1.110       .  S
C1067      H1079   1.107       .  S
C1067      H1080   1.111       .  S
C1081      C1082   1.398       .  A
C1081      C1086   1.397       .  A
C1081      H1091   1.085       .  S
C1082      C1087   1.473       .  S
C1082      C1083   1.410       .  A
C1083      C1084   1.404       .  A
C1083      C1088   1.506       .  S
C1084      C1085   1.403       .  A
C1084      H1089   1.084       .  S
C1085      C1086   1.413       .  A
C1086      C1090   1.506       .  S
C1087      C1092   1.410       .  A
C1087      C1096   1.397       .  A
C1088      H1104   1.110       .  S
C1088      H1105   1.110       .  S
C1088      H1106   1.111       .  S
C1090      H1101   1.110       .  S
C1090      H1102   1.110       .  S
C1090      H1103   1.109       .  S
C1092      C1093   1.399       .  A
C1092      C1097   1.509       .  S
C1093      C1094   1.404       .  A
C1093      H1098   1.084       .  S
C1094      C1095   1.421       .  A
C1095      C1096   1.404       .  A
C1095      C1099   1.507       .  S
C1096      H1100   1.084       .  S
C1097      H1107   1.111       .  S
C1097      H1108   1.110       .  S
C1097      H1109   1.110       .  S
C1099      H1110   1.109       .  S
C1099      H1111   1.111       .  S
C1099      H1112   1.111       .  S
C1113      C1114   1.400       .  A
C1113      C1118   1.406       .  A
C1113      H1123   1.084       .  S
C1114      C1119   1.494       .  S
C1114      C1115   1.415       .  A
C1115      C1116   1.412       .  A
C1115      C1120   1.505       .  S
C1116      C1117   1.405       .  A
C1116      H1121   1.084       .  S
C1117      C2765   1.493       .  S
C1117      C1118   1.421       .  A
C1118      C1122   1.509       .  S
C1119      C1124   1.411       .  A
C1119      C1128   1.406       .  A
C1120      H1136   1.109       .  S
C1120      H1137   1.111       .  S
C1120      H1138   1.109       .  S
C1122      H1133   1.110       .  S
C1122      H1134   1.111       .  S
C1122      H1135   1.108       .  S
C1124      C1125   1.405       .  A
C1124      C1129   1.507       .  S
C1125      C1126   1.409       .  A
C1125      H1130   1.084       .  S
C1126      C1127   1.417       .  A
C1127      C1128   1.410       .  A
C1127      C1131   1.507       .  S
C1128      H1132   1.084       .  S
C1129      H1139   1.111       .  S
C1129      H1140   1.109       .  S
C1129      H1141   1.110       .  S
C1131      H1142   1.110       .  S
C1131      H1143   1.104       .  S
C1131      H1144   1.111       .  S
C1145      C1146   1.399       .  A
C1145      C3886   1.408       .  A
C1145      H3891   1.084       .  S
C1146      C1151   1.479       .  S
C1146      C1147   1.409       .  A
C1147      C1148   1.399       .  A
C1147      C1152   1.509       .  S
C1148      C1149   1.408       .  A
C1148      H1153   1.084       .  S
C1149      C2761   1.491       .  S
C1149      C3886   1.422       .  A
C1150      C3881   1.405       .  A
C1150      C3885   1.421       .  A
C1150      C1154   1.508       .  S
C1151      C1156   1.409       .  A
C1151      C1160   1.400       .  A
C1152      H1168   1.110       .  S
C1152      H1169   1.110       .  S
C1152      H1170   1.111       .  S
C1154      H1165   1.110       .  S
C1154      H1166   1.111       .  S
C1154      H1167   1.109   1_655  S
H1155      C3881   1.084       .  S
C1156      C1157   1.403       .  A
C1156      C1161   1.506       .  S
C1157      C1158   1.405       .  A
C1157      H1162   1.085       .  S
C1158      C1159   1.417       .  A
C1159      C1160   1.402       .  A
C1159      C1163   1.507       .  S
C1160      H1164   1.085       .  S
C1161      H1171   1.110       .  S
C1161      H1172   1.110       .  S
C1161      H1173   1.110       .  S
C1163      H1174   1.110       .  S
C1163      H1175   1.103       .  S
C1163      H1176   1.110       .  S
C1177      C1178   1.397       .  A
C1177      C1182   1.403       .  A
C1177      H1187   1.084       .  S
C1178      C1183   1.472       .  S
C1178      C1179   1.407       .  A
C1179      C1180   1.398       .  A
C1179      C1184   1.508       .  S
C1180      C1181   1.409       .  A
C1180      H1185   1.084       .  S
C1181      C1182   1.422       .  A
C1182      C1186   1.508       .  S
C1183      C1188   1.409       .  A
C1183      C1192   1.399       .  A
C1184      H1200   1.110       .  S
C1184      H1201   1.110       .  S
C1184      H1202   1.111       .  S
C1186      H1197   1.111       .  S
C1186      H1198   1.110       .  S
C1186      H1199   1.109       .  S
C1188      C1189   1.398       .  A
C1188      C1193   1.507       .  S
C1189      C1190   1.402       .  A
C1189      H1194   1.085       .  S
C1190      C1191   1.417       .  A
C1191      C1192   1.400       .  A
C1191      C2563   1.509       .  S
C1192      H1196   1.085       .  S
C1193      H1203   1.111       .  S
C1193      H1204   1.110       .  S
C1193      H1205   1.111       .  S
C1195      C2559   1.507       .  S
C1195      H1206   1.109       .  S
C1195      H1207   1.110       .  S
C1195      H1208   1.111       .  S
C1209      C1210   1.401       .  A
C1209      C1214   1.404       .  A
C1209      H1219   1.084       .  S
C1210      C1215   1.474       .  S
C1210      C1211   1.409       .  A
C1211      C1212   1.399       .  A
C1211      C1216   1.509       .  S
C1212      C1213   1.407       .  A
C1212      H1217   1.084       .  S
C1213      C1214   1.416       .  A
C1214      C1218   1.507   1_545  S
C1215      C1220   1.407       .  A
C1215      C1224   1.398       .  A
C1216      H1232   1.110       .  S
C1216      H1233   1.108       .  S
C1216      H1234   1.111       .  S
C1218      H1229   1.111       .  S
C1218      H1230   1.109       .  S
C1218      H1231   1.110       .  S
C1220      C1221   1.402       .  A
C1220      C1225   1.507       .  S
C1221      C1222   1.408       .  A
C1221      H1226   1.084       .  S
C1222      C1223   1.419       .  A
C1223      C1224   1.401       .  A
C1223      C3963   1.505       .  S
C1224      H1228   1.084       .  S
C1225      H1235   1.111       .  S
C1225      H1236   1.110       .  S
C1225      H1237   1.108       .  S
C1227      C3959   1.505       .  S
C1227      H1238   1.108       .  S
C1227      H1239   1.111       .  S
C1227      H1240   1.111       .  S
C1241      C1246   1.398       .  A
C1241      C3978   1.400       .  A
C1241      H1251   1.085       .  S
C1242      C1247   1.482       .  S
C1242      C1243   1.410       .  A
C1242      C3977   1.401       .  A
C1243      C1244   1.407       .  A
C1243      C1248   1.506       .  S
C1244      C1245   1.407       .  A
C1244      H1249   1.084       .  S
C1245      C3982   1.414       .  A
C1246      C3981   1.413       .  A
C1246      C1250   1.505       .  S
C1247      C1256   1.404       .  A
C1247      C3988   1.411       .  A
C1248      H1264   1.110       .  S
C1248      H1265   1.108       .  S
C1248      H1266   1.111       .  S
C1250      H1261   1.110       .  S
C1250      H1262   1.111       .  S
C1250      H1263   1.107       .  S
C1252      C1253   1.395       .  A
C1252      C3983   1.410       .  A
C1252      C1257   1.509       .  S
C1253      C3990   1.402       .  A
C1253      H1258   1.085       .  S
C1254      C3152   1.484       .  S
C1254      C1255   1.416       .  A
C1254      C3989   1.406       .  A
C1255      C1256   1.409       .  A
C1255      C1259   1.506       .  S
C1256      H1260   1.084       .  S
C1257      H1267   1.111       .  S
C1257      H1268   1.110       .  S
C1257      H1269   1.109       .  S
C1259      H1270   1.110       .  S
C1259      H1271   1.110       .  S
C1259      H1272   1.111       .  S
C1273      C1274   1.401       .  A
C1273      C1278   1.401       .  A
C1273      H1283   1.085       .  S
C1274      C1279   1.482       .  S
C1274      C1275   1.411       .  A
C1275      C1276   1.408       .  A
C1275      C1280   1.505       .  S
C1276      C1277   1.404       .  A
C1276      H1281   1.084       .  S
C1277      C1278   1.414       .  A
C1278      C1282   1.508       .  S
C1279      C1284   1.412       .  A
C1279      C1288   1.400       .  A
C1280      H1296   1.110       .  S
C1280      H1297   1.110       .  S
C1280      H1298   1.111       .  S
C1282      H1293   1.111       .  S
C1282      H1294   1.110       .  S
C1282      H1295   1.109       .  S
C1284      C1285   1.401       .  A
C1284      C1289   1.508       .  S
C1285      C1286   1.401       .  A
C1285      H1290   1.084       .  S
C1286      C1287   1.420       .  A
C1287      C1288   1.407       .  A
C1287      C1291   1.509       .  S
C1288      H1292   1.084       .  S
C1289      H1299   1.111       .  S
C1289      H1300   1.110       .  S
C1289      H1301   1.110       .  S
C1291      H1302   1.110       .  S
C1291      H1303   1.105       .  S
C1291      H1304   1.110       .  S
C1305      C1306   1.396       .  A
C1305      C1310   1.401       .  A
C1305      H1315   1.084       .  S
C1306      C1311   1.472       .  S
C1306      C1307   1.410       .  A
C1307      C1308   1.397       .  A
C1307      C1312   1.508       .  S
C1308      C1309   1.403       .  A
C1308      H1313   1.083       .  S
C1309      C1310   1.423       .  A
C1310      C1314   1.509       .  S
C1311      C1316   1.409       .  A
C1311      C1320   1.398       .  A
C1312      H1328   1.110       .  S
C1312      H1329   1.110       .  S
C1312      H1330   1.111       .  S
C1314      H1325   1.109       .  S
C1314      H1326   1.111       .  S
C1314      H1327   1.110       .  S
C1316      C1317   1.398       .  A
C1316      C1321   1.508       .  S
C1317      C1318   1.406       .  A
C1317      H1322   1.084       .  S
C1318      C1319   1.421       .  A
C1319      C1320   1.402       .  A
C1319      C1323   1.509       .  S
C1320      H1324   1.084       .  S
C1321      H1331   1.111       .  S
C1321      H1332   1.110       .  S
C1321      H1333   1.110       .  S
C1323      H1334   1.111       .  S
C1323      H1335   1.110       .  S
C1323      H1336   1.109       .  S
C1337      C1338   1.399       .  A
C1337      C1342   1.402       .  A
C1337      H1347   1.084   1_565  S
C1338      C1343   1.476       .  S
C1338      C2707   1.408       .  A
C1339      C1340   1.402       .  A
C1339      C2706   1.413       .  A
C1339      C1344   1.508       .  S
C1340      C1341   1.401       .  A
C1340      H1345   1.084       .  S
C1341      C2710   1.412   1_455  A
C1342      C2709   1.420       .  A
C1342      C1346   1.508   1_565  S
C1343      C1352   1.400       .  A
C1343      C2716   1.409   1_455  A
C1344      H1360   1.110       .  S
C1344      H1361   1.108       .  S
C1344      H1362   1.111       .  S
C1346      H1357   1.110       .  S
C1346      H1358   1.111       .  S
C1346      H1359   1.108       .  S
C1348      C2711   1.408       .  A
C1348      C2717   1.404       .  A
C1348      C4089   1.506       .  S
C1349      C1350   1.405   1_655  A
C1349      C2716   1.404       .  A
C1349      H5458   1.084       .  S
C1350      C1351   1.415       .  A
C1351      C1352   1.399       .  A
C1351      C1355   1.508   1_565  S
C1352      H1356   1.085       .  S
C1353      C4084   1.505       .  S
C1353      H1363   1.111       .  S
C1353      H1365   1.110       .  S
C1353      H4100   1.110       .  S
H1354      C5453   1.084       .  S
C1355      H1366   1.111       .  S
C1355      H1367   1.110       .  S
C1355      H1368   1.109   1_545  S
H1364      C4089   1.110       .  S
C1369      N1374   1.361       .  A
C1369      C2709   1.486       .  S
N1370      C1371   1.354       .  A
C1371      C2677   1.483       .  S
N1372      C1373   1.350       .  A
C1373      N1374   1.358       .  A
C1373      C1448   1.459       .  S
C1375      N1376   1.358       .  A
C1375      N1380   1.360       .  A
C1375      C2654   1.484       .  S
N1376      C1377   1.357       .  A
C1377      N1378   1.351       .  A
C1377      C1429   1.456       .  S
N1378      C1379   1.352       .  A
C1379      N1380   1.356       .  A
C1379      C2686   1.469       .  S
C1381      N1382   1.356       .  A
C1381      N4122   1.358   1_455  A
C1381      C2613   1.475       .  S
N1382      C1383   1.355       .  A
C1383      N1384   1.355       .  A
C1383      C1433   1.449       .  S
N1384      C4121   1.357   1_455  A
C1385      N4120   1.359       .  A
C1385      N1386   1.357       .  A
C1385      C2590   1.482       .  S
N1386      C4117   1.357       .  A
C1387      N1392   1.357       .  A
C1387      C2558   1.481       .  S
N1388      C1389   1.356       .  A
C1389      C1428   1.453       .  S
N1390      C1391   1.358       .  A
C1391      N1392   1.355       .  A
C1391      C2581   1.477       .  S
C1393      N1394   1.352       .  A
C1393      N4134   1.353       .  A
C1393      C5253   1.488       .  S
N1394      C1395   1.358   1_655  A
C1395      N1396   1.364   1_455  A
C1395      C1441   1.471       .  S
N1396      C1397   1.365       .  A
C1397      N4134   1.355       .  A
C1397      C5221   1.486       .  S
N1398      C4129   1.354       .  A
N1398      C4133   1.356       .  A
C1399      N1400   1.350       .  A
C1399      N1404   1.352       .  A
C1399      C2462   1.479       .  S
N1400      C1401   1.357       .  A
C1401      N1402   1.367       .  A
C1401      C1427   1.472       .  S
N1402      C1403   1.367       .  A
C1403      N1404   1.356       .  A
C1403      C2494   1.480       .  S
Zr1405     O1406   2.440       .  S
Zr1405     O1407   2.438       .  S
Zr1405     O1408   2.421       .  S
Zr1405     O1411   2.423       .  S
Zr1405     O1413   2.380       .  S
Zr1405     O1414   2.383       .  S
Zr1405     O1415   2.408       .  S
Zr1405     O1416   2.404       .  S
O1406      H1462   0.990       .  S
O1406      H1470   0.990       .  S
O1407      C1427   1.283       .  A
O1408      C1429   1.281       .  A
O1409     Zr1419   2.423       .  S
O1409      C1428   1.282       .  A
O1410     Zr1418   2.423       .  S
O1410      C1429   1.284       .  A
O1411      C1428   1.281       .  A
O1412     Zr1420   2.420       .  S
O1412      C1427   1.283       .  A
O1413     Zr1418   2.386       .  S
O1413     Zr1420   2.374       .  S
O1414     Zr1419   2.387       .  S
O1414     Zr1420   2.374       .  S
O1414      H1449   0.966       .  S
O1415     Zr1418   2.397       .  S
O1415     Zr1435   2.383       .  S
O1415      H1452   0.965       .  S
O1416     Zr1419   2.388       .  S
O1416     Zr1435   2.392       .  S
Zr1417     O1442   2.442       .  S
Zr1417     O1436   2.443       .  S
Zr1417     O1444   2.413       .  S
Zr1417     O1432   2.424       .  S
Zr1417     O1423   2.404       .  S
Zr1417     O1424   2.408       .  S
Zr1417     O1425   2.376       .  S
Zr1417     O1426   2.385       .  S
Zr1418     O1437   2.436       .  S
Zr1418     O1430   2.436       .  S
Zr1418     O1431   2.420       .  S
Zr1418     O1424   2.398       .  S
Zr1418     O1425   2.392       .  S
Zr1419     O1421   2.435       .  S
Zr1419     O1443   2.440       .  S
Zr1419     O1445   2.421       .  S
Zr1419     O1423   2.386       .  S
Zr1419     O1426   2.395       .  S
Zr1420     O1446   2.438       .  S
Zr1420     O1447   2.436       .  S
Zr1420     O1422   2.437       .  S
Zr1420     O1423   2.394       .  S
Zr1420     O1424   2.393       .  S
O1421      H1458   0.991       .  S
O1422      H1453   0.990       .  S
O1422      H1467   0.990       .  S
O1424      H1450   0.966       .  S
O1425     Zr1435   2.376       .  S
O1426     Zr1435   2.373       .  S
O1426      H1451   0.966       .  S
O1430      H1466   0.990       .  S
O1431      C1433   1.280       .  A
O1432      C1433   1.280       .  A
O1434     Zr1435   2.438       .  S
O1434      H1463   0.991       .  S
Zr1435     O1438   2.437       .  S
Zr1435     O1439   2.439       .  S
Zr1435     O1440   2.411       .  S
O1436      C1441   1.284       .  A
O1437      H1454   0.990       .  S
O1437      H1469   0.990       .  S
O1438      H1455   0.990       .  S
O1439      H1459   0.990       .  S
O1439      H1468   0.990       .  S
O1440      C1441   1.280       .  A
O1442      H1461   0.990       .  S
O1442      H1465   0.991       .  S
O1443      H1457   0.990       .  S
O1443      H1464   0.990       .  S
O1444      C1448   1.279       .  A
O1445      C1448   1.283       .  A
O1446      H1456   0.990       .  S
O1447      H1460   0.990       .  S
Zr1471     O1472   2.438       .  S
Zr1471     O1473   2.406       .  S
Zr1471     O1474   2.420       .  S
Zr1471     O1477   2.412       .  S
Zr1471     O1479   2.374       .  S
Zr1471     O1480   2.381       .  S
Zr1471     O1481   2.392       .  S
Zr1471     O1482   2.389       .  S
O1472      H1528   0.990       .  S
O1472      H1536   0.990       .  S
O1473      C1493   1.280       .  A
O1474      C1495   1.281       .  A
O1475     Zr1485   2.447       .  S
O1475      C1494   1.286       .  A
O1476     Zr1484   2.425       .  S
O1476      C1495   1.284       .  A
O1477      C1494   1.282       .  A
O1478     Zr1486   2.427       .  S
O1478      C1493   1.282       .  A
O1479     Zr1484   2.382       .  S
O1479     Zr1486   2.367       .  S
O1480     Zr1485   2.383       .  S
O1480     Zr1486   2.377       .  S
O1480      H1515   0.966       .  S
O1481     Zr1484   2.399       .  S
O1481     Zr1501   2.396       .  S
O1481      H1518   0.966       .  S
O1482     Zr1485   2.396       .  S
O1482     Zr1501   2.385       .  S
Zr1483     O1508   2.441       .  S
Zr1483     O1502   2.427       .  S
Zr1483     O1510   2.406       .  S
Zr1483     O1498   2.420       .  S
Zr1483     O1489   2.396       .  S
Zr1483     O1490   2.399       .  S
Zr1483     O1491   2.371       .  S
Zr1483     O1492   2.378       .  S
Zr1484     O1503   2.434       .  S
Zr1484     O1496   2.434       .  S
Zr1484     O1497   2.430       .  S
Zr1484     O1490   2.399       .  S
Zr1484     O1491   2.389       .  S
Zr1485     O1487   2.435       .  S
Zr1485     O1509   2.438       .  S
Zr1485     O1511   2.440       .  S
Zr1485     O1489   2.393       .  S
Zr1485     O1492   2.395       .  S
Zr1486     O1512   2.437       .  S
Zr1486     O1513   2.435       .  S
Zr1486     O1488   2.437       .  S
Zr1486     O1489   2.394       .  S
Zr1486     O1490   2.401       .  S
O1487      H1524   0.990       .  S
O1488      H1519   0.990       .  S
O1488      H1533   0.990       .  S
O1490      H1516   0.966       .  S
O1491     Zr1501   2.380       .  S
O1492     Zr1501   2.381       .  S
O1492      H1517   0.966       .  S
C1493      C2398   1.460       .  S
C1494      C2421   1.471       .  S
C1495      C2357   1.485       .  S
O1496      H1532   0.989       .  S
O1497      C1499   1.282       .  A
O1498      C1499   1.281       .  A
C1499      C2526   1.467       .  S
O1500     Zr1501   2.438       .  S
O1500      H1529   0.990       .  S
Zr1501     O1504   2.435       .  S
Zr1501     O1505   2.440       .  S
Zr1501     O1506   2.407       .  S
O1502      C1507   1.284       .  A
O1503      H1520   0.990       .  S
O1503      H1535   0.990       .  S
O1504      H1521   0.990       .  S
O1505      H1525   0.990       .  S
O1505      H1534   0.990       .  S
O1506      C1507   1.278       .  A
C1507      C2549   1.478       .  S
O1508      H1527   0.990       .  S
O1508      H1531   0.991       .  S
O1509      H1523   0.990       .  S
O1509      H1530   0.990       .  S
O1510      C1514   1.280       .  A
O1511      C1514   1.286       .  A
O1512      H1522   0.990       .  S
O1513      H1526   0.990       .  S
C1514      C2645   1.469       .  S
C1537      N1538   1.355       .  A
C1537      N1542   1.354       .  A
C1537      C2334   1.490       .  S
N1538      C1539   1.359       .  A
C1539      N1540   1.369       .  A
C1539      C1597   1.481       .  S
N1540      C1541   1.367       .  A
C1541      N1542   1.355       .  A
C1541      C2293   1.486       .  S
C1543      N1544   1.354       .  A
C1543      N1548   1.356       .  A
C1543      C2430   1.478       .  S
N1544      C1545   1.359       .  A
C1545      N1546   1.368       .  A
C1545      C1616   1.478       .  S
N1546      C1547   1.369       .  A
C1547      N1548   1.358       .  A
C1547      C2302   1.498       .  S
C1549      N1550   1.354       .  A
C1549      N1554   1.354       .  A
C1549      C2270   1.472       .  S
N1550      C1551   1.356       .  A
C1551      N1552   1.360       .  A
C1551      C2238   1.479       .  S
N1552      C1553   1.359       .  A
C1553      N1554   1.360       .  A
C1553      C1609   1.464       .  S
C1555      N1556   1.357       .  A
C1555      N1560   1.351       .  A
C1555      C2389   1.466       .  S
N1556      C1557   1.358       .  A
C1557      N1558   1.361       .  A
C1557      C2229   1.484       .  S
N1558      C1559   1.357       .  A
C1559      N1560   1.355       .  A
C1559      C1595   1.460       .  S
C1561      N1562   1.358       .  A
C1561      N1566   1.358       .  A
C1561      C2206   1.465       .  S
N1562      C1563   1.356       .  A
C1563      N1564   1.354       .  A
C1563      C2165   1.470       .  S
N1564      C1565   1.353       .  A
C1565      N1566   1.356       .  A
C1565      C1596   1.449       .  S
C1567      N1568   1.357       .  A
C1567      N1572   1.360       .  A
C1567      C5102   1.487       .  S
N1568      C1569   1.354       .  A
C1569      N1570   1.354       .  A
C1569      C2174   1.465       .  S
N1570      C1571   1.355       .  A
C1571      N1572   1.359       .  A
C1571      C4337   1.457       .  S
Zr1573     O1574   2.435       .  S
Zr1573     O1575   2.433       .  S
Zr1573     O1576   2.454       .  S
Zr1573     O1579   2.427       .  S
Zr1573     O1582   2.386       .  S
O1574      H1630   0.990       .  S
O1574      H1638   0.989       .  S
O1575      C1595   1.283       .  A
O1577     Zr1587   2.411   1_565  S
O1577      C1596   1.280       .  A
O1578     Zr1586   2.450       .  S
O1578      C1597   1.286       .  A
O1579      C1596   1.282       .  A
O1580     Zr1588   2.404       .  S
O1580      C1595   1.279       .  A
O1581     Zr1586   2.386       .  S
O1582     Zr1587   2.391   1_565  S
O1582     Zr1588   2.376       .  S
O1582      H1617   0.966       .  S
O1583     Zr1586   2.394       .  S
O1583     Zr1603   2.390       .  S
O1583      H1620   0.966       .  S
O1584     Zr1603   2.388       .  S
Zr1585     O1610   2.441       .  S
Zr1585     O1604   2.444       .  S
Zr1585     O1612   2.437       .  S
Zr1585     O1600   2.430       .  S
Zr1585     O4327   2.396       .  S
Zr1585     O4328   2.414   1_455  S
Zr1585     O4329   2.383   1_455  S
Zr1585     O1594   2.380       .  S
Zr1586     O1605   2.437       .  S
Zr1586     O1598   2.436       .  S
Zr1586     O1599   2.415       .  S
Zr1586     O1592   2.408       .  S
Zr1586     O1593   2.399       .  S
Zr1587     O4325   2.435       .  S
Zr1587     O1611   2.438   1_545  S
Zr1587     O2981   2.436       .  S
Zr1587     O2962   2.379       .  S
Zr1588     O1614   2.435       .  S
O1589     Zr4323   2.436   1_455  S
O1589      H1626   0.990       .  S
O1591     Zr4321   2.391       .  S
O1592     Zr4321   2.412       .  S
O1592      H1618   0.965       .  S
O1593     Zr4321   2.387       .  S
O1593     Zr1603   2.375       .  S
O1594     Zr2955   2.386       .  S
O1594     Zr4339   2.383   1_455  S
O1594      H1619   0.966       .  S
O1598      H1634   0.990       .  S
O1599      C1601   1.281       .  A
O1600      C4337   1.281   1_455  A
C1601      C4307   1.451       .  S
C1601      O4336   1.281       .  A
O1602     Zr1603   2.439       .  S
O1602      H1631   0.990       .  S
Zr1603     O1606   2.437       .  S
Zr1603     O4343   2.439       .  S
Zr1603     O4344   2.412       .  S
Zr1603     O4330   2.384       .  S
O1604      C1609   1.285       .  A
O1605      H1622   0.990       .  S
O1605      H1637   0.990       .  S
O1606      H4359   0.990       .  S
O1607     Zr4339   2.439   1_455  S
O1607      H1627   0.990       .  S
O1607      H1636   0.990       .  S
O1608     Zr4339   2.406   1_455  S
O1608      C1609   1.279       .  A
O1610      H1629   0.990       .  S
O1610      H1633   0.990       .  S
O1611      H4361   0.990       .  S
O1611      H1632   0.990       .  S
O1612      C1616   1.286       .  A
O1613     Zr2955   2.442       .  S
O1613      C1616   1.284       .  A
O1614      H1624   0.990       .  S
O1615      H1628   0.990       .  S
H1623      O4342   0.990       .  S
H1625      O4347   0.990       .  S
C1639      N1640   1.359       .  A
C1639      N1644   1.365       .  A
C1639      C2133   1.482       .  S
N1640      C1641   1.352       .  A
C1641      N1642   1.353       .  A
C1641      C2110   1.484       .  S
N1642      C1643   1.356       .  A
C1643      N1644   1.363       .  A
C1643      C1698   1.468       .  S
C1645      N1646   1.359       .  A
C1645      N1650   1.358       .  A
C1645      C2069   1.483       .  S
N1646      C1647   1.355       .  A
C1647      N1648   1.351       .  A
C1647      C2101   1.473       .  S
N1648      C1649   1.353       .  A
C1649      N1650   1.357       .  A
C1649      C1703   1.457       .  S
C1651      N1652   1.358       .  A
C1651      N1656   1.355       .  A
C1651      C2046   1.469       .  S
N1652      C1653   1.358       .  A
C1653      N1654   1.361       .  A
C1653      C1699   1.461       .  S
N1654      C1655   1.360       .  A
C1655      N1656   1.354       .  A
C1657      N1658   1.359       .  A
C1657      N1662   1.356       .  A
C1657      C1973   1.482       .  S
N1658      C1659   1.357       .  A
C1659      N1660   1.361       .  A
C1659      C2005   1.486       .  S
N1660      C1661   1.357       .  A
C1661      N1662   1.356       .  A
C1661      C1718   1.458       .  S
C1663      N1664   1.352       .  A
C1663      N1668   1.351       .  A
C1663      C1941   1.492       .  S
N1664      C1665   1.355       .  A
C1665      N1666   1.370       .  A
C1665      C1918   1.494       .  S
N1666      C1667   1.370       .  A
C1667      N1668   1.360       .  A
C1667      C1697   1.480       .  S
C1669      N1670   1.350       .  A
C1669      N1674   1.354       .  A
C1669      C1877   1.485       .  S
N1670      C1671   1.352       .  A
C1671      N1672   1.367       .  A
C1671      C1909   1.484       .  S
N1672      C1673   1.369       .  A
C1673      N1674   1.361       .  A
C1673      C1711   1.477       .  S
Zr1675     O1676   2.440       .  S
Zr1675     O1677   2.461       .  S
Zr1675     O1678   2.466       .  S
Zr1675     O1681   2.462       .  S
Zr1675     O1683   2.385       .  S
Zr1675     O1684   2.398       .  S
Zr1675     O1685   2.420       .  S
Zr1675     O1686   2.398       .  S
O1676      H1732   0.990       .  S
O1676      H1740   0.990       .  S
O1677      C1697   1.287       .  A
O1678      C1699   1.288       .  A
O1679     Zr1689   2.415       .  S
O1679      C1698   1.283       .  A
O1680     Zr1688   2.401       .  S
O1680      C1699   1.277       .  A
O1681      C1698   1.288       .  A
O1682     Zr1690   2.420       .  S
O1682      C1697   1.283       .  A
O1683     Zr1688   2.392       .  S
O1683     Zr1690   2.374       .  S
O1684     Zr1689   2.387       .  S
O1684     Zr1690   2.382       .  S
O1684      H1719   0.965       .  S
O1685     Zr1688   2.398       .  S
O1685     Zr1705   2.407       .  S
O1685      H1722   0.966       .  S
O1686     Zr1689   2.384       .  S
O1686     Zr1705   2.377       .  S
Zr1687     O1712   2.441       .  S
Zr1687     O1706   2.445       .  S
Zr1687     O1714   2.433       .  S
Zr1687     O1702   2.419       .  S
Zr1687     O1693   2.406       .  S
Zr1687     O1694   2.408       .  S
Zr1687     O1695   2.382       .  S
Zr1687     O1696   2.378       .  S
Zr1688     O1707   2.438       .  S
Zr1688     O1700   2.436       .  S
Zr1688     O1701   2.414       .  S
Zr1688     O1694   2.387       .  S
Zr1688     O1695   2.385       .  S
Zr1689     O1691   2.436       .  S
Zr1689     O1713   2.437       .  S
Zr1689     O1715   2.424       .  S
Zr1689     O1693   2.385       .  S
Zr1689     O1696   2.391       .  S
Zr1690     O1716   2.436       .  S
Zr1690     O1717   2.435       .  S
Zr1690     O1692   2.438       .  S
Zr1690     O1693   2.397       .  S
Zr1690     O1694   2.393       .  S
O1691      H1728   0.990       .  S
O1692      H1723   0.990       .  S
O1692      H1737   0.990       .  S
O1694      H1720   0.966       .  S
O1695     Zr1705   2.371       .  S
O1696     Zr1705   2.380       .  S
O1696      H1721   0.965       .  S
O1700      H1736   0.990       .  S
O1701      C1703   1.282       .  A
O1702      C1703   1.281       .  A
O1704     Zr1705   2.438       .  S
O1704      H1733   0.990       .  S
Zr1705     O1708   2.436       .  S
Zr1705     O1709   2.439       .  S
Zr1705     O1710   2.424       .  S
O1706      C1711   1.285       .  A
O1707      H1724   0.990       .  S
O1707      H1739   0.990       .  S
O1708      H1725   0.989       .  S
O1709      H1729   0.990       .  S
O1709      H1738   0.990       .  S
O1710      C1711   1.284       .  A
O1712      H1731   0.991       .  S
O1712      H1735   0.990       .  S
O1713      H1727   0.990       .  S
O1713      H1734   0.990       .  S
O1714      C1718   1.282       .  A
O1715      C1718   1.282       .  A
O1716      H1726   0.990       .  S
O1717      H1730   0.990       .  S
Zr1741     O4478   2.440       .  S
Zr1741     O1743   2.421       .  S
Zr1741     O4483   2.398       .  S
Zr1741     O1749   2.374       .  S
Zr1741     O1750   2.375       .  S
Zr1741     O1751   2.395       .  S
Zr1741     O4488   2.392       .  S
O1742     Zr4477   2.439   1_455  S
O1742      H1798   0.990   1_455  S
O1742      H1806   0.990   1_455  S
O1743      C1763   1.283       .  A
O1744      C1765   1.282       .  A
O1745     Zr1755   2.445       .  S
O1745      C1764   1.287       .  A
O1746     Zr1754   2.439       .  S
O1746      C1765   1.285       .  A
O1747     Zr4477   2.414   1_455  S
O1747      C1764   1.283       .  A
O1748     Zr1756   2.423       .  S
O1748      C1763   1.281       .  A
O1749     Zr1756   2.377       .  S
O1750     Zr4491   2.388       .  S
O1750     Zr1756   2.372       .  S
O1750      H1785   0.966       .  S
O1751     Zr4507   2.394       .  S
O1752     Zr4477   2.394   1_455  S
O1752     Zr1755   2.393       .  S
O1752     Zr1771   2.393   1_455  S
Zr1753     O1778   2.440       .  S
Zr1753     O1772   2.428       .  S
Zr1753     O1780   2.397       .  S
Zr1753     O1759   2.398   1_554  S
Zr1753     O4498   2.382       .  S
Zr1754     O1773   2.435       .  S
Zr1754     O1766   2.434       .  S
Zr1754     O1767   2.433   1_556  S
Zr1754     O1760   2.403   1_565  S
Zr1754     O1761   2.394   1_556  S
Zr1755     O1757   2.435       .  S
Zr1755     O4515   2.436       .  S
Zr1755     O1781   2.442   1_556  S
Zr1755     O4486   2.393   1_455  S
Zr1755     O4495   2.393   1_455  S
Zr1755     O1762   2.393   1_556  S
Zr1756     O1782   2.435       .  S
Zr1756     O1783   2.435       .  S
Zr1756     O1759   2.388       .  S
O1757      H1794   0.990       .  S
O1758      H1789   0.990       .  S
O1758      H1803   0.990       .  S
O1759     Zr4491   2.395       .  S
O1760      H1786   0.960   1_556  S
O1761     Zr3139   2.373   1_554  S
O1762     Zr4489   2.378   1_455  S
O1762     Zr1771   2.383   1_454  S
O1762      H1787   0.965       .  S
C1763      C2078   1.493       .  S
C1764      C1950   1.482       .  S
C1765      C1982   1.480       .  S
O1766      H1802   0.990       .  S
O1767      C1769   1.284       .  A
O1768      C1769   1.282       .  A
C1769      C2453   1.469       .  S
O1770     Zr1771   2.437   1_455  S
O1770      H1799   0.990       .  S
Zr1771     O1775   2.440   1_656  S
Zr1771     O1776   2.419   1_556  S
Zr1771     O4487   2.390       .  S
Zr1771     O3129   2.372   1_556  S
O1772      C4513   1.282       .  A
O1773      H1790   0.990       .  S
O1773      H1805   0.990       .  S
O1774      H1791   0.991       .  S
O1775      H1795   0.991       .  S
O1775      H1804   0.990       .  S
O1776      C1777   1.281       .  A
C1777      C2718   1.476       .  S
C1777      O4508   1.282       .  A
O1778      H1797   0.990       .  S
O1778      H1801   0.991       .  S
O1779     Zr4491   2.437       .  S
O1779      H4529   0.990       .  S
O1779      H1800   0.990       .  S
O1780      C1784   1.280       .  A
O1781      C4520   1.285       .  A
O1782      H1792   0.990       .  S
O1783      H1796   0.990   1_556  S
C1784      C5358   1.477       .  S
C1784      O4517   1.286       .  A
H1793      O4515   0.990       .  S
Zr1807     O1808   2.438       .  S
Zr1807     O1809   2.415       .  S
Zr1807     O1810   2.408       .  S
Zr1807     O1813   2.417       .  S
Zr1807     O1815   2.377       .  S
Zr1807     O1816   2.375       .  S
Zr1807     O1817   2.399       .  S
Zr1807     O1818   2.392       .  S
O1808      H1864   0.990       .  S
O1808      H1872   0.990       .  S
O1809      C1829   1.282       .  A
O1810      C1831   1.280       .  A
O1811     Zr1821   2.435       .  S
O1811      C1830   1.284       .  A
O1812     Zr1820   2.446       .  S
O1812      C1831   1.287       .  A
O1813      C1830   1.284       .  A
O1814     Zr1822   2.429       .  S
O1814      C1829   1.281       .  A
O1815     Zr1820   2.388       .  S
O1815     Zr1822   2.374       .  S
O1816     Zr1821   2.384       .  S
O1816     Zr1822   2.368       .  S
O1816      H1851   0.967       .  S
O1817     Zr1820   2.398       .  S
O1817     Zr1837   2.397       .  S
O1817      H1854   0.966       .  S
O1818     Zr1821   2.396       .  S
O1818     Zr1837   2.401       .  S
Zr1819     O1844   2.441       .  S
Zr1819     O1838   2.420       .  S
Zr1819     O1846   2.415       .  S
Zr1819     O1834   2.403       .  S
Zr1819     O1825   2.392       .  S
Zr1819     O1826   2.400       .  S
Zr1819     O1827   2.374       .  S
Zr1819     O1828   2.376       .  S
Zr1820     O1839   2.435       .  S
Zr1820     O1832   2.435       .  S
Zr1820     O1833   2.444       .  S
Zr1820     O1826   2.402       .  S
Zr1820     O1827   2.387       .  S
Zr1821     O1823   2.435       .  S
Zr1821     O1845   2.435       .  S
Zr1821     O1847   2.425       .  S
Zr1821     O1825   2.396       .  S
Zr1821     O1828   2.388       .  S
Zr1822     O1848   2.437       .  S
Zr1822     O1849   2.436       .  S
Zr1822     O1824   2.436       .  S
Zr1822     O1825   2.398       .  S
Zr1822     O1826   2.396       .  S
O1823      H1860   0.990       .  S
O1824      H1855   0.990   1_565  S
O1824      H1869   0.990       .  S
O1826      H1852   0.966       .  S
O1827     Zr1837   2.372       .  S
O1828     Zr1837   2.370       .  S
O1828      H1853   0.966       .  S
C1829      C2037   1.492       .  S
C1830      C1886   1.475       .  S
C1831      C2142   1.479       .  S
O1832      H1868   0.989       .  S
O1833      C1835   1.286       .  A
O1834      C1835   1.280       .  A
C1835      C2325   1.465       .  S
O1836     Zr1837   2.438       .  S
O1836      H1865   0.990       .  S
Zr1837     O1840   2.438       .  S
Zr1837     O1841   2.438       .  S
Zr1837     O1842   2.434       .  S
O1838      C1843   1.282       .  A
O1839      H1856   0.990       .  S
O1839      H1871   0.990       .  S
O1840      H1857   0.990       .  S
O1841      H1861   0.990       .  S
O1841      H1870   0.990       .  S
O1842      C1843   1.284       .  A
C1843      C2261   1.475       .  S
O1844      H1863   0.990       .  S
O1844      H1867   0.990       .  S
O1845      H1859   0.990       .  S
O1845      H1866   0.990       .  S
O1846      C1850   1.283       .  A
O1847      C1850   1.283       .  A
O1848      H1858   0.990       .  S
O1849      H1862   0.990       .  S
C1850      C2197   1.471       .  S
C1873      C1874   1.397       .  A
C1873      C1878   1.398       .  A
C1873      H4619   1.085       .  S
C1874      C1879   1.475       .  S
C1874      C1875   1.407       .  A
C1875      C1876   1.405       .  A
C1875      C1880   1.505       .  S
C1876      C1877   1.410       .  A
C1876      H1881   1.084       .  S
C1877      C1878   1.421       .  A
C1878      C1882   1.510       .  S
C1879      C4620   1.409       .  A
C1879      C1888   1.400       .  A
C1880      H1896   1.110       .  S
C1880      H1897   1.110       .  S
C1880      H1898   1.111       .  S
C1882      H1893   1.109       .  S
C1882      H1894   1.111       .  S
C1882      H1895   1.110       .  S
H1883      C4609   1.085       .  S
C1884      C4615   1.409       .  A
C1884      C1885   1.398       .  A
C1884      C1889   1.508       .  S
C1885      C1886   1.405       .  A
C1885      H1890   1.085       .  S
C1886      C1887   1.418       .  A
C1887      C4624   1.404       .  A
C1887      C4627   1.508   1_455  S
C1888      C4623   1.402       .  A
C1888      H1892   1.085       .  S
C1889      H1899   1.111       .  S
C1889      H1900   1.110       .  S
C1889      H1901   1.108       .  S
C1891      C4623   1.508       .  S
C1891      H1902   1.111       .  S
C1891      H4639   1.104       .  S
C1891      H1904   1.110       .  S
H1903      C4627   1.103   1_455  S
C1905      C1906   1.400       .  A
C1905      C1910   1.405       .  A
C1905      H1915   1.084       .  S
C1906      C1911   1.488       .  S
C1906      C4643   1.414       .  A
C1907      C4642   1.414       .  A
C1907      C1908   1.409       .  A
C1907      C1912   1.506       .  S
C1908      C1909   1.404       .  A
C1908      H1913   1.084       .  S
C1909      C4646   1.420       .  A
C1910      C4645   1.421       .  A
C1910      C1914   1.510       .  S
C1911      C1916   1.414       .  A
C1911      C1920   1.396       .  A
C1912      H4664   1.110       .  S
C1912      H1929   1.109       .  S
C1912      H1930   1.111       .  S
C1914      H1925   1.109       .  S
C1914      H1926   1.111       .  S
C1914      H4663   1.110       .  S
C1916      C1917   1.413       .  A
C1916      C1921   1.505       .  S
C1917      C1918   1.407       .  A
C1917      H1922   1.084       .  S
C1918      C1919   1.424       .  A
C1919      C1920   1.402       .  A
C1919      C1923   1.510       .  S
C1920      H1924   1.085       .  S
C1921      H1931   1.111       .  S
C1921      H1932   1.110       .  S
C1921      H1933   1.109       .  S
C1923      H1934   1.111       .  S
C1923      H1935   1.110       .  S
C1923      H1936   1.109       .  S
H1927      C4650   1.110       .  S
H1928      C4648   1.110       .  S
C1937      C1938   1.400       .  A
C1937      C1942   1.409       .  A
C1937      H1947   1.084       .  S
C1938      C1943   1.479       .  S
C1938      C1939   1.408       .  A
C1939      C1940   1.397       .  A
C1939      C1944   1.508       .  S
C1940      C1941   1.407       .  A
C1940      H1945   1.083       .  S
C1941      C1942   1.424       .  A
C1942      C1946   1.508       .  S
C1943      C1948   1.408       .  A
C1943      C1952   1.402       .  A
C1944      H1960   1.110       .  S
C1944      H1961   1.110       .  S
C1944      H1962   1.110       .  S
C1946      H1957   1.109       .  S
C1946      H1958   1.111       .  S
C1946      H1959   1.110       .  S
C1948      C1949   1.400       .  A
C1948      C1953   1.507       .  S
C1949      C1950   1.406       .  A
C1949      H1954   1.084       .  S
C1950      C1951   1.416       .  A
C1951      C1952   1.407       .  A
C1951      C4691   1.505       .  S
C1952      H1956   1.084       .  S
C1953      H1963   1.111       .  S
C1953      H1964   1.110       .  S
C1953      H1965   1.110       .  S
C1955      C4687   1.506       .  S
C1955      H1966   1.111       .  S
C1955      H1967   1.110       .  S
C1955      H1968   1.110       .  S
C1969      C1970   1.401       .  A
C1969      C1974   1.404       .  A
C1969      H1979   1.084       .  S
C1970      C1975   1.483       .  S
C1970      C1971   1.412       .  A
C1971      C1972   1.401       .  A
C1971      C1976   1.508       .  S
C1972      C1973   1.404       .  A
C1972      H1977   1.084       .  S
C1973      C1974   1.419       .  A
C1974      C1978   1.508       .  S
C1975      C1980   1.413       .  A
C1975      C1984   1.402       .  A
C1976      H1992   1.109       .  S
C1976      H1993   1.110       .  S
C1976      H4730   1.111       .  S
C1978      H1989   1.111       .  S
C1978      H1990   1.111       .  S
C1978      H1991   1.110       .  S
C1980      C1981   1.401       .  A
C1980      C1985   1.509       .  S
C1981      C1982   1.404       .  A
C1981      H1986   1.085       .  S
C1982      C1983   1.417       .  A
C1983      C1984   1.405       .  A
C1983      C1987   1.506       .  S
C1984      H1988   1.084       .  S
C1985      H1995   1.111       .  S
C1985      H1996   1.109       .  S
C1985      H1997   1.110       .  S
C1987      H1998   1.109       .  S
C1987      H1999   1.111       .  S
C1987      H2000   1.111       .  S
H1994      C4712   1.111       .  S
C2001      C2002   1.400       .  A
C2001      C4742   1.405       .  A
C2001      H2011   1.084       .  S
C2002      C2007   1.482       .  S
C2002      C2003   1.412       .  A
C2003      C4740   1.402   1_455  A
C2003      C2008   1.508       .  S
C2004      C4739   1.401       .  A
C2004      C2005   1.405       .  A
C2004      H2009   1.084       .  S
C2005      C2006   1.420       .  A
C2006      C4737   1.407       .  A
C2006      C2010   1.508       .  S
C2007      C2012   1.413       .  A
C2007      C2016   1.400       .  A
C2008      H2024   1.109       .  S
C2008      H2025   1.110       .  S
C2008      H2026   1.111       .  S
C2010      H2021   1.111       .  S
C2010      H2022   1.111       .  S
C2010      H2023   1.108       .  S
C2012      C2013   1.404   1_565  A
C2012      C4753   1.507   1_565  S
C2013      C2014   1.403       .  A
C2013      H2018   1.084       .  S
C2014      C2015   1.418   1_545  A
C2015      C2016   1.402       .  A
C2015      C2019   1.509       .  S
C2016      H2020   1.084       .  S
C2017      C4748   1.506   1_545  S
C2017      H2027   1.111       .  S
C2017      H2028   1.110   1_545  S
C2017      H2029   1.110   1_545  S
C2019      H2032   1.109       .  S
C2033      C2034   1.397   1_545  A
C2033      C2038   1.404   1_545  A
C2034      C2039   1.477   1_565  S
C2034      C2035   1.409       .  A
C2035      C2036   1.399       .  A
C2035      C2040   1.508       .  S
C2036      C2037   1.410       .  A
C2036      H2041   1.084       .  S
C2037      C2038   1.424       .  A
C2038      C2042   1.508   1_565  S
C2039      C2044   1.410       .  A
C2040      H2056   1.109       .  S
C2040      H2057   1.110       .  S
C2040      H2058   1.111       .  S
C2042      H2053   1.111       .  S
C2042      H2055   1.110       .  S
C2044      C2045   1.405       .  A
C2044      C2049   1.506       .  S
C2045      H2050   1.084       .  S
C2046      C2047   1.414       .  A
C2047      C2048   1.399       .  A
C2047      C2051   1.507       .  S
C2048      H2052   1.085       .  S
C2049      H2059   1.111       .  S
C2049      H2060   1.110       .  S
C2049      H2061   1.110       .  S
C2051      H2062   1.111       .  S
C2051      H2063   1.108       .  S
C2051      H2064   1.110       .  S
C2065      C2066   1.400       .  A
C2065      C2070   1.407       .  A
C2065      H2075   1.084       .  S
C2066      C2071   1.474       .  S
C2066      C2067   1.408       .  A
C2067      C2068   1.395       .  A
C2067      C2072   1.509       .  S
C2068      C2069   1.406       .  A
C2068      H2073   1.084       .  S
C2069      C2070   1.421       .  A
C2070      C2074   1.508       .  S
C2071      C2076   1.405       .  A
C2071      C2080   1.397       .  A
C2072      H2088   1.110       .  S
C2072      H2089   1.108       .  S
C2072      H2090   1.111       .  S
C2074      H2086   1.109       .  S
C2074      H2087   1.111       .  S
C2076      C2077   1.401       .  A
C2076      C2081   1.507       .  S
C2077      C2078   1.412       .  A
C2077      H2082   1.084       .  S
C2078      C2079   1.425       .  A
C2079      C2080   1.402       .  A
C2079      C2083   1.509       .  S
C2080      H2084   1.085       .  S
C2081      H2093   1.110       .  S
C2083      H2094   1.109       .  S
C2083      H2095   1.110       .  S
C2083      H2096   1.111       .  S
C2097      C2102   1.403       .  A
C2097      H2107   1.084       .  S
C2098      C2103   1.474       .  S
C2098      C2099   1.408   1_565  A
C2099      C2104   1.506       .  S
C2100      C2101   1.402       .  A
C2101      C2102   1.419       .  A
C2102      C2106   1.508       .  S
C2103      C2108   1.407       .  A
C2103      C2112   1.399       .  A
C2104      H2120   1.110       .  S
C2104      H2121   1.110   1_545  S
C2104      H2122   1.111       .  S
C2106      H2117   1.111       .  S
C2106      H2118   1.111       .  S
C2106      H2119   1.109       .  S
C2108      C2109   1.398       .  A
C2108      C2113   1.508       .  S
C2109      C2110   1.406       .  A
C2109      H2114   1.084       .  S
C2110      C2111   1.421       .  A
C2111      C2112   1.405       .  A
C2111      C2115   1.508       .  S
C2113      H2123   1.111       .  S
C2113      H2124   1.110       .  S
C2113      H2125   1.110       .  S
C2115      H2127   1.110       .  S
C2115      H2128   1.111       .  S
C2129      C2130   1.403       .  A
C2129      C2134   1.407       .  A
C2129      H2139   1.084       .  S
C2130      C2135   1.479       .  S
C2130      C2131   1.408       .  A
C2131      C2132   1.400       .  A
C2131      C2136   1.507       .  S
C2132      C2133   1.407       .  A
C2132      H2137   1.084       .  S
C2133      C2134   1.415       .  A
C2134      C2138   1.506       .  S
C2135      C2140   1.409       .  A
C2135      C2144   1.399       .  A
C2136      H2152   1.110       .  S
C2136      H2153   1.110       .  S
C2136      H2154   1.111       .  S
C2138      H2149   1.111       .  S
C2138      H2150   1.110       .  S
C2138      H2151   1.110       .  S
C2140      C2141   1.406       .  A
C2140      C2145   1.505       .  S
C2141      C2142   1.406       .  A
C2141      H2146   1.084       .  S
C2142      C2143   1.419       .  A
C2143      C2144   1.400       .  A
C2143      C2147   1.511       .  S
C2144      H2148   1.085       .  S
C2145      H2155   1.111       .  S
C2145      H2156   1.110       .  S
C2145      H2157   1.110       .  S
C2147      H2158   1.109       .  S
C2147      H2159   1.110       .  S
C2147      H2160   1.111       .  S
C2161      C2162   1.402       .  A
C2161      C2166   1.402       .  A
C2161      H2171   1.085       .  S
C2162      C2167   1.475       .  S
C2162      C2163   1.408       .  A
C2163      C2164   1.399       .  A
C2163      C2168   1.507       .  S
C2164      C2165   1.405       .  A
C2164      H2169   1.085       .  S
C2165      C2166   1.414       .  A
C2166      C2170   1.507       .  S
C2167      C4908   1.408       .  A
C2167      C2176   1.398       .  A
C2168      H2184   1.110       .  S
C2168      H4921   1.110       .  S
C2168      H2186   1.111       .  S
C2170      H2181   1.110       .  S
C2170      H2182   1.111       .  S
C2170      H2183   1.107       .  S
C2172      C4903   1.411       .  A
C2172      C2173   1.401       .  A
C2172      C2177   1.507       .  S
C2173      C2174   1.401       .  A
C2173      H2178   1.084   1_655  S
C2174      C4911   1.416       .  A
C2175      C4910   1.420       .  A
C2175      C2176   1.402       .  A
C2175      C2179   1.509       .  S
C2176      H2180   1.084       .  S
C2177      H2187   1.111   1_655  S
C2177      H2188   1.110       .  S
C2177      H2189   1.110   1_655  S
C2179      H2190   1.111       .  S
C2179      H2191   1.110       .  S
C2179      H2192   1.110       .  S
H2185      C4904   1.110       .  S
C2193      C2194   1.401       .  A
C2193      C4934   1.405       .  A
C2193      H2203   1.084       .  S
C2194      C2199   1.475       .  S
C2194      C4931   1.410       .  A
C2195      C4930   1.409       .  A
C2195      C2196   1.396       .  A
C2195      C2200   1.509       .  S
C2196      C2197   1.404       .  A
C2196      H2201   1.085       .  S
C2197      C2198   1.418       .  A
C2198      C4929   1.403       .  A
C2198      C2202   1.508       .  S
C2199      C2204   1.409       .  A
C2199      C2208   1.400       .  A
C2200      H2216   1.110       .  S
C2200      H4953   1.109       .  S
C2200      H2218   1.111       .  S
C2202      H4949   1.110       .  S
C2202      H2214   1.111       .  S
C2202      H2215   1.106       .  S
C2204      C2205   1.403       .  A
C2204      C2209   1.506       .  S
C2205      C2206   1.402       .  A
C2205      H2210   1.084       .  S
C2206      C2207   1.415       .  A
C2207      C2208   1.399       .  A
C2207      C2211   1.510       .  S
C2208      H4948   1.085       .  S
C2209      H2219   1.111       .  S
C2209      H2220   1.110       .  S
C2209      H2221   1.109       .  S
C2211      H4958   1.110       .  S
C2211      H2223   1.106       .  S
C2211      H4960   1.111       .  S
H2212      C4944   1.085       .  S
H2213      C4938   1.110       .  S
H2217      C4936   1.109       .  S
H2222      C4947   1.110       .  S
H2224      C4947   1.111       .  S
C2225      C2226   1.400       .  A
C2225      C2230   1.406       .  A
C2225      H2235   1.084       .  S
C2226      C2231   1.477       .  S
C2226      C2227   1.408       .  A
C2227      C2228   1.399       .  A
C2227      C2232   1.508       .  S
C2228      C2229   1.406       .  A
C2228      H2233   1.084       .  S
C2229      C2230   1.420       .  A
C2230      C2234   1.508       .  S
C2231      C2236   1.410       .  A
C2231      C2240   1.398       .  A
C2232      H2248   1.110       .  S
C2232      H2249   1.110       .  S
C2232      H2250   1.111       .  S
C2234      H2245   1.109       .  S
C2234      H2246   1.111       .  S
C2234      H2247   1.110       .  S
C2236      C2237   1.403       .  A
C2236      C2241   1.506       .  S
C2237      C2238   1.404       .  A
C2237      H2242   1.084       .  S
C2238      C2239   1.420       .  A
C2239      C2240   1.402       .  A
C2239      C2243   1.509       .  S
C2240      H2244   1.084       .  S
C2241      H2251   1.111       .  S
C2241      H2252   1.110       .  S
C2241      H2253   1.110       .  S
C2243      H2254   1.111       .  S
C2243      H2255   1.110       .  S
C2243      H2256   1.109       .  S
C2257      C2258   1.401       .  A
C2257      C2262   1.400       .  A
C2257      H2267   1.085       .  S
C2258      C2263   1.481       .  S
C2258      C2259   1.411       .  A
C2259      C2260   1.406       .  A
C2259      C2264   1.505       .  S
C2260      C2261   1.404       .  A
C2260      H2265   1.084       .  S
C2261      C2262   1.414       .  A
C2262      C2266   1.508       .  S
C2263      C2268   1.411       .  A
C2263      C2272   1.402       .  A
C2264      H2280   1.110       .  S
C2264      H2281   1.110       .  S
C2264      H2282   1.111       .  S
C2266      H2277   1.109       .  S
C2266      H2278   1.110       .  S
C2266      H2279   1.110       .  S
C2268      C2269   1.401       .  A
C2268      C2273   1.507       .  S
C2269      C2270   1.402       .  A
C2269      H2274   1.084       .  S
C2270      C2271   1.417       .  A
C2271      C2272   1.404       .  A
C2271      C2275   1.508       .  S
C2272      H2276   1.084       .  S
C2273      H2283   1.111       .  S
C2273      H2284   1.109       .  S
C2273      H2285   1.111       .  S
C2275      H2286   1.110       .  S
C2275      H2287   1.105       .  S
C2275      H2288   1.111       .  S
C2289      C2290   1.399       .  A
C2289      C2294   1.404       .  A
C2289      H2299   1.085       .  S
C2290      C2295   1.489       .  S
C2290      C2291   1.414       .  A
C2291      C2292   1.411       .  A
C2292      C2293   1.404       .  A
C2293      C2294   1.420       .  A
C2294      C2298   1.509       .  S
C2295      C2300   1.413       .  A
C2295      C2304   1.396       .  A
C2296      H2312   1.110       .  S
C2296      H2313   1.110   1_545  S
C2296      H2314   1.111       .  S
C2298      H2309   1.110       .  S
C2298      H2310   1.111       .  S
C2298      H2311   1.108       .  S
C2300      C2301   1.412       .  A
C2301      C2302   1.408       .  A
C2302      C2303   1.424       .  A
C2303      C2304   1.404       .  A
C2303      C2307   1.505       .  S
C2304      H2308   1.084       .  S
C2305      H2315   1.111       .  S
C2305      H2317   1.109       .  S
C2307      H2318   1.111       .  S
C2307      H2319   1.110       .  S
C2307      H2320   1.107       .  S
C2321      C2322   1.400       .  A
C2321      C2326   1.396       .  A
C2322      C2327   1.476       .  S
C2322      C2323   1.410       .  A
C2323      C2324   1.406       .  A
C2323      C2328   1.505       .  S
C2324      C2325   1.404       .  A
C2324      H2329   1.084       .  S
C2325      C2326   1.412       .  A
C2326      C2330   1.508       .  S
C2327      C2332   1.410       .  A
C2327      C2336   1.397       .  A
C2328      H2344   1.110       .  S
C2328      H2345   1.109       .  S
C2328      H2346   1.111       .  S
C2330      H2341   1.110       .  S
C2330      H2343   1.109       .  S
C2332      C2333   1.402       .  A
C2332      C2337   1.508       .  S
C2333      H2338   1.084       .  S
C2334      C2335   1.423       .  A
C2335      C2339   1.505       .  S
C2336      H2340   1.084       .  S
C2337      H2347   1.111       .  S
C2337      H2348   1.110       .  S
C2337      H2349   1.108       .  S
C2339      H2350   1.111       .  S
C2339      H2351   1.110       .  S
C2339      H2352   1.108       .  S
C2353      C2354   1.398       .  A
C2353      C2358   1.399       .  A
C2353      H2363   1.085       .  S
C2354      C2359   1.474       .  S
C2354      C2355   1.406       .  A
C2355      C2356   1.403       .  A
C2355      C2360   1.505       .  S
C2356      C2357   1.409       .  A
C2356      H2361   1.084       .  S
C2357      C2358   1.422       .  A
C2358      C2362   1.509       .  S
C2359      C2364   1.408       .  A
C2359      C2368   1.397       .  A
C2360      H5112   1.110       .  S
C2360      H5113   1.111       .  S
C2360      H5114   1.111       .  S
C2362      H2373   1.111       .  S
C2362      H2374   1.109       .  S
C2362      H2375   1.109       .  S
C2364      C2365   1.400       .  A
C2364      C2369   1.507       .  S
C2365      C2366   1.406       .  A
C2365      H2370   1.084       .  S
C2366      C4303   1.483       .  S
C2366      C2367   1.423       .  A
C2367      C2368   1.402       .  A
C2367      C5107   1.509       .  S
C2368      H2372   1.084       .  S
C2369      H2379   1.111       .  S
C2369      H2380   1.110       .  S
C2369      H2381   1.111       .  S
C2371      C5103   1.508       .  S
C2371      H5118   1.110       .  S
C2371      H2383   1.110       .  S
C2371      H2384   1.111       .  S
H2376      C5096   1.109       .  S
H2377      C5096   1.111       .  S
H2378      C5096   1.111       .  S
H2382      C5107   1.110       .  S
C2385      C2386   1.400       .  A
C2385      C2390   1.399       .  A
C2385      H2395   1.085       .  S
C2386      C2391   1.469       .  S
C2386      C2387   1.409       .  A
C2387      C2388   1.399       .  A
C2387      C2392   1.507       .  S
C2388      C2389   1.403       .  A
C2388      H2393   1.084       .  S
C2389      C2390   1.412       .  A
C2390      C2394   1.507       .  S
C2391      C2396   1.408       .  A
C2391      C2400   1.399       .  A
C2392      H2408   1.110       .  S
C2392      H2409   1.110       .  S
C2392      H2410   1.111       .  S
C2394      H2405   1.111       .  S
C2394      H2406   1.110       .  S
C2394      H2407   1.108       .  S
C2396      C2397   1.402       .  A
C2396      C2401   1.505       .  S
C2397      C2398   1.404       .  A
C2397      H2402   1.084       .  S
C2398      C2399   1.413       .  A
C2399      C2400   1.395       .  A
C2399      C2403   1.510       .  S
C2400      H2404   1.085       .  S
C2401      H2411   1.111       .  S
C2401      H2412   1.110       .  S
C2401      H2413   1.110       .  S
C2403      H2414   1.111       .  S
C2403      H2415   1.107       .  S
C2403      H2416   1.111       .  S
C2417      C2418   1.403       .  A
C2417      C2422   1.400       .  A
C2417      H2427   1.084       .  S
C2418      C2423   1.485       .  S
C2418      C2419   1.415       .  A
C2419      C2420   1.406       .  A
C2419      C2424   1.506       .  S
C2420      C2421   1.402       .  A
C2420      H2425   1.084       .  S
C2421      C2422   1.411       .  A
C2422      C2426   1.508       .  S
C2423      C2428   1.413       .  A
C2423      C2432   1.403       .  A
C2424      H2440   1.108       .  S
C2424      H2441   1.110       .  S
C2424      H2442   1.111       .  S
C2426      H2437   1.111       .  S
C2426      H2438   1.111       .  S
C2426      H2439   1.108       .  S
C2428      C2429   1.405       .  A
C2428      C2433   1.507       .  S
C2429      C2430   1.405       .  A
C2429      H2434   1.084       .  S
C2430      C2431   1.414       .  A
C2431      C2432   1.401       .  A
C2431      C2435   1.506       .  S
C2432      H2436   1.084       .  S
C2433      H2443   1.111       .  S
C2433      H2444   1.108       .  S
C2433      H2445   1.110       .  S
C2435      H2446   1.109       .  S
C2435      H2447   1.108       .  S
C2435      H2448   1.111       .  S
C2449      C2450   1.396       .  A
C2449      C2454   1.395       .  A
C2449      H2459   1.085       .  S
C2450      C2455   1.472       .  S
C2450      C2451   1.410       .  A
C2451      C2452   1.405       .  A
C2451      C2456   1.505       .  S
C2452      C2453   1.404       .  A
C2452      H2457   1.084       .  S
C2453      C2454   1.415       .  A
C2454      C2458   1.507       .  S
C2455      C2460   1.410       .  A
C2455      C2464   1.398       .  A
C2456      H2472   1.111       .  S
C2456      H2473   1.110       .  S
C2456      H2474   1.111       .  S
C2458      H2469   1.110   1_565  S
C2458      H2470   1.110       .  S
C2458      H2471   1.109   1_565  S
C2460      C2461   1.398       .  A
C2460      C2465   1.509       .  S
C2461      C2462   1.404       .  A
C2461      H2466   1.084       .  S
C2462      C2463   1.420       .  A
C2463      C2464   1.404       .  A
C2463      C2467   1.508       .  S
C2464      H2468   1.084       .  S
C2465      H2475   1.111       .  S
C2465      H2476   1.110       .  S
C2465      H2477   1.110       .  S
C2467      H2478   1.110       .  S
C2467      H2479   1.110       .  S
C2467      H2480   1.111       .  S
C2481      C2482   1.398       .  A
C2481      C2486   1.404       .  A
C2481      H2491   1.084       .  S
C2482      C2487   1.488       .  S
C2482      C2483   1.412       .  A
C2483      C2484   1.409       .  A
C2483      C2488   1.506       .  S
C2484      C2485   1.407       .  A
C2484      H2489   1.084       .  S
C2485      C4133   1.494       .  S
C2485      C2486   1.424       .  A
C2486      C2490   1.510       .  S
C2487      C2492   1.410       .  A
C2487      C2496   1.406       .  A
C2488      H2504   1.110       .  S
C2488      H2505   1.111       .  S
C2488      H2506   1.111       .  S
C2490      H2501   1.111       .  S
C2490      H2502   1.111       .  S
C2490      H2503   1.109       .  S
C2492      C2493   1.401       .  A
C2492      C2497   1.507       .  S
C2493      C2494   1.405       .  A
C2493      H2498   1.085       .  S
C2494      C2495   1.416       .  A
C2495      C2496   1.409       .  A
C2495      C2499   1.507       .  S
C2496      H2500   1.084       .  S
C2497      H2507   1.111       .  S
C2497      H2508   1.109       .  S
C2497      H2509   1.110       .  S
C2499      H2510   1.110       .  S
C2499      H2511   1.107       .  S
C2499      H2512   1.111       .  S
C2513      C2514   1.399       .  A
C2513      C5254   1.408       .  A
C2513      H5259   1.084       .  S
C2514      C2519   1.478       .  S
C2514      C2515   1.410       .  A
C2515      C2516   1.399       .  A
C2515      C2520   1.509       .  S
C2516      C2517   1.406       .  A
C2516      H2521   1.084       .  S
C2517      C4129   1.488       .  S
C2517      C5254   1.422       .  A
C2518      C5249   1.407       .  A
C2518      C5253   1.423       .  A
C2518      C2522   1.508       .  S
C2519      C2524   1.410       .  A
C2519      C2528   1.401       .  A
C2520      H2536   1.110       .  S
C2520      H2537   1.110       .  S
C2520      H2538   1.111       .  S
C2522      H2533   1.110       .  S
C2522      H2534   1.111   1_655  S
C2522      H2535   1.109   1_655  S
H2523      C5249   1.084       .  S
C2524      C2525   1.403       .  A
C2524      C2529   1.506       .  S
C2525      C2526   1.403       .  A
C2525      H2530   1.085       .  S
C2526      C2527   1.414       .  A
C2527      C2528   1.401       .  A
C2527      C2531   1.507       .  S
C2528      H2532   1.085       .  S
C2529      H2539   1.111       .  S
C2529      H2540   1.110       .  S
C2529      H2541   1.110       .  S
C2531      H2542   1.110       .  S
C2531      H2543   1.106       .  S
C2531      H2544   1.111       .  S
C2545      C2546   1.398       .  A
C2545      C2550   1.401       .  A
C2545      H2555   1.084       .  S
C2546      C2551   1.473       .  S
C2546      C2547   1.409       .  A
C2547      C2548   1.399       .  A
C2547      C2552   1.507       .  S
C2548      C2549   1.405       .  A
C2548      H2553   1.084       .  S
C2549      C2550   1.420       .  A
C2550      C2554   1.508       .  S
C2551      C2556   1.408       .  A
C2551      C2560   1.400       .  A
C2552      H2568   1.110       .  S
C2552      H2569   1.110       .  S
C2552      H2570   1.111       .  S
C2554      H2565   1.111       .  S
C2554      H2566   1.110       .  S
C2554      H2567   1.110       .  S
C2556      C2557   1.397       .  A
C2556      C2561   1.509       .  S
C2557      C2558   1.405       .  A
C2557      H2562   1.084       .  S
C2558      C2559   1.419       .  A
C2559      C2560   1.405       .  A
C2560      H2564   1.084       .  S
C2561      H2571   1.111       .  S
C2561      H2572   1.110       .  S
C2561      H2573   1.110       .  S
C2563      H2574   1.110       .  S
C2563      H2575   1.105       .  S
C2563      H2576   1.111       .  S
C2577      C2578   1.401       .  A
C2577      C2582   1.405       .  A
C2577      H2587   1.084       .  S
C2578      C2583   1.475       .  S
C2578      C2579   1.408       .  A
C2579      C2580   1.400       .  A
C2579      C2584   1.508       .  S
C2580      C2581   1.405       .  A
C2580      H2585   1.084       .  S
C2581      C2582   1.415       .  A
C2582      C2586   1.507       .  S
C2583      C2588   1.408       .  A
C2583      C2592   1.399       .  A
C2584      H2600   1.110       .  S
C2584      H2601   1.110       .  S
C2584      H2602   1.111       .  S
C2586      H2597   1.111       .  S
C2586      H2598   1.109       .  S
C2586      H2599   1.111       .  S
C2588      C2589   1.400       .  A
C2588      C2593   1.507       .  S
C2589      C2590   1.406       .  A
C2589      H2594   1.084       .  S
C2590      C2591   1.419       .  A
C2591      C2592   1.404       .  A
C2591      C5331   1.506       .  S
C2592      H2596   1.084       .  S
C2593      H2603   1.111       .  S
C2593      H2604   1.110       .  S
C2593      H2605   1.109       .  S
C2595      C5327   1.505       .  S
C2595      H2606   1.106       .  S
C2595      H2607   1.111       .  S
C2595      H2608   1.111       .  S
C2609      C5346   1.400       .  A
C2609      C2614   1.399       .  A
C2609      H2619   1.085       .  S
C2610      C2615   1.476       .  S
C2610      C5345   1.400       .  A
C2610      C2611   1.409       .  A
C2611      C2612   1.403       .  A
C2611      C2616   1.507       .  S
C2612      C2613   1.406       .  A
C2612      H2617   1.084       .  S
C2613      C5350   1.414       .  A
C2614      C5349   1.415       .  A
C2614      C2618   1.507       .  S
C2615      C5356   1.410       .  A
C2615      C2624   1.402       .  A
C2616      H2632   1.110       .  S
C2616      H2633   1.108       .  S
C2616      H2634   1.111       .  S
C2618      H2629   1.110       .  S
C2618      H2630   1.111       .  S
C2618      H2631   1.108       .  S
C2620      C5351   1.410       .  A
C2620      C2621   1.396       .  A
C2620      C2625   1.510       .  S
C2621      C5358   1.405       .  A
C2621      H2626   1.084       .  S
C2622      C4520   1.482       .  S
C2622      C5357   1.405       .  A
C2622      C2623   1.417       .  A
C2623      C2624   1.407       .  A
C2623      C2627   1.506       .  S
C2624      H2628   1.084       .  S
C2625      H2635   1.111       .  S
C2625      H2636   1.110       .  S
C2625      H2637   1.108       .  S
C2627      H2638   1.111       .  S
C2627      H2639   1.109       .  S
C2627      H2640   1.111       .  S
C2641      C2642   1.401       .  A
C2641      C2646   1.401       .  A
C2641      H2651   1.085       .  S
C2642      C2647   1.476       .  S
C2642      C2643   1.408       .  A
C2643      C2644   1.401       .  A
C2643      C2648   1.506       .  S
C2644      C2645   1.405       .  A
C2644      H2649   1.085       .  S
C2645      C2646   1.415       .  A
C2646      C2650   1.508       .  S
C2647      C2652   1.410       .  A
C2647      C2656   1.398       .  A
C2648      H2664   1.110       .  S
C2648      H2665   1.110       .  S
C2648      H2666   1.111       .  S
C2650      H2661   1.111       .  S
C2650      H2662   1.110       .  S
C2650      H2663   1.106       .  S
C2652      C2653   1.399       .  A
C2652      C2657   1.509       .  S
C2653      C2654   1.405       .  A
C2653      H2658   1.084       .  S
C2654      C2655   1.421       .  A
C2655      C2656   1.405       .  A
C2655      C2659   1.507       .  S
C2656      H2660   1.084       .  S
C2657      H2667   1.111       .  S
C2657      H2668   1.110       .  S
C2657      H2669   1.110       .  S
C2659      H2670   1.111       .  S
C2659      H2671   1.110       .  S
C2659      H2672   1.109       .  S
C2673      C2674   1.398       .  A
C2673      C2678   1.402       .  A
C2673      H2683   1.084       .  S
C2674      C2679   1.467       .  S
C2674      C2675   1.404       .  A
C2675      C2676   1.394       .  A
C2675      C2680   1.508       .  S
C2676      C2677   1.410       .  A
C2676      H2681   1.084       .  S
C2677      C2678   1.420       .  A
C2678      C2682   1.506       .  S
C2679      C2684   1.407       .  A
C2679      C2688   1.400       .  A
C2680      H2696   1.110       .  S
C2680      H2697   1.110       .  S
C2680      H2698   1.111       .  S
C2682      H2693   1.109       .  S
C2682      H2694   1.111       .  S
C2682      H2695   1.109       .  S
C2684      C2685   1.396       .  A
C2684      C2689   1.507       .  S
C2685      C2686   1.404       .  A
C2685      H2690   1.084       .  S
C2686      C2687   1.415       .  A
C2687      C2688   1.400       .  A
C2687      C2691   1.507       .  S
C2688      H2692   1.084       .  S
C2689      H2699   1.111       .  S
C2689      H2700   1.110       .  S
C2689      H2701   1.110       .  S
C2691      H2702   1.111       .  S
C2691      H2703   1.110       .  S
C2691      H2704   1.109       .  S
C2705      C2706   1.400   1_655  A
C2705      C2710   1.402       .  A
C2705      H2715   1.084       .  S
C2706      C2711   1.475   1_455  S
C2707      C2708   1.401       .  A
C2707      C2712   1.507       .  S
C2708      C2709   1.407       .  A
C2708      H2713   1.084       .  S
C2710      C2714   1.506       .  S
C2711      C2720   1.400       .  A
C2712      H2728   1.109       .  S
C2712      H2729   1.110       .  S
C2712      H2730   1.111       .  S
C2714      H2725   1.110       .  S
C2714      H2726   1.111       .  S
C2714      H2727   1.107       .  S
C2716      C5457   1.506       .  S
C2717      C2718   1.407       .  A
C2717      H4090   1.084       .  S
C2718      C2719   1.415       .  A
C2719      C2720   1.399       .  A
C2719      C2723   1.508   1_655  S
C2720      H2724   1.084   1_655  S
C2721      C5452   1.505       .  S
C2721      H2731   1.111       .  S
C2721      H5468   1.110       .  S
C2721      H2733   1.110       .  S
H2722      C4085   1.084       .  S
C2723      H2734   1.111       .  S
C2723      H2735   1.110   1_455  S
C2723      H2736   1.111       .  S
H2732      C5457   1.110       .  S
C2737      N4106   1.356       .  A
C2737      N2742   1.363       .  A
C2737      C4077   1.476       .  S
N2738      C4105   1.360       .  A
N2738      C2739   1.357   1_565  A
C2739      N4108   1.350   1_545  A
C2739      C4045   1.477       .  S
N2740      C4107   1.347       .  A
N2740      C2741   1.351       .  A
C2741      N2742   1.361       .  A
C2741      C2816   1.457       .  S
C2743      N2744   1.356       .  A
C2743      N2748   1.357       .  A
C2743      C4022   1.467       .  S
N2744      C2745   1.355       .  A
C2745      N2746   1.352       .  A
C2745      C2797   1.451       .  S
N2746      C2747   1.352       .  A
C2747      N2748   1.357       .  A
C2747      C4054   1.478       .  S
C2749      N2750   1.353       .  A
C2749      C3981   1.473       .  S
N2750      C2751   1.352       .  A
C2751      N2752   1.354       .  A
C2751      C2801   1.449       .  S
C2753      N2754   1.360       .  A
C2753      C3958   1.477       .  S
C2755      N4124   1.355   1_545  A
C2755      N2760   1.356       .  A
C2755      C3926   1.493       .  S
N2756      C4123   1.355       .  A
N2756      C2757   1.357       .  A
C2757      N4126   1.360       .  A
C2757      C2796   1.454       .  S
N2758      C4125   1.360       .  A
N2758      C2759   1.359   1_565  A
C2759      N2760   1.355       .  A
C2759      C3949   1.478       .  S
C2761      N2762   1.355       .  A
N2762      C2763   1.360       .  A
C2763      N2764   1.370       .  A
C2763      C2809   1.482       .  S
N2764      C2765   1.368       .  A
C2767      N2768   1.349       .  A
C2767      N2772   1.350       .  A
C2767      C3830   1.482       .  S
N2768      C2769   1.358       .  A
C2769      N2770   1.370       .  A
C2769      C2795   1.478       .  S
N2770      C2771   1.371       .  A
C2771      N2772   1.357       .  A
C2771      C3862   1.496       .  S
Zr2773     O2774   2.440       .  S
Zr2773     O2775   2.453       .  S
Zr2773     O2776   2.414       .  S
Zr2773     O2779   2.428       .  S
Zr2773     O2781   2.380       .  S
Zr2773     O2782   2.382       .  S
Zr2773     O2783   2.412       .  S
Zr2773     O2784   2.405       .  S
O2774      H2830   0.990       .  S
O2774      H2838   0.990       .  S
O2775      C2795   1.286       .  A
O2776      C2797   1.279       .  A
O2777     Zr2787   2.423       .  S
O2777      C2796   1.282       .  A
O2778     Zr2786   2.423       .  S
O2778      C2797   1.282       .  A
O2779      C2796   1.283       .  A
O2780     Zr2788   2.419       .  S
O2780      C2795   1.283       .  A
O2781     Zr2786   2.382       .  S
O2781     Zr2788   2.371       .  S
O2782     Zr2787   2.386       .  S
O2782     Zr2788   2.368       .  S
O2782      H2817   0.966       .  S
O2783     Zr2786   2.395       .  S
O2783     Zr2803   2.396       .  S
O2783      H2820   0.966       .  S
O2784     Zr2787   2.390       .  S
O2784     Zr2803   2.405       .  S
Zr2785     O2810   2.440       .  S
Zr2785     O2804   2.444       .  S
Zr2785     O2812   2.414       .  S
Zr2785     O2800   2.428       .  S
Zr2785     O2791   2.402       .  S
Zr2785     O2792   2.407       .  S
Zr2785     O2793   2.380       .  S
Zr2785     O2794   2.381       .  S
Zr2786     O2805   2.437       .  S
Zr2786     O2798   2.437       .  S
Zr2786     O2799   2.415       .  S
Zr2786     O2792   2.398       .  S
Zr2786     O2793   2.394       .  S
Zr2787     O2789   2.435       .  S
Zr2787     O2811   2.437       .  S
Zr2787     O2813   2.418       .  S
Zr2787     O2791   2.385       .  S
Zr2787     O2794   2.387       .  S
Zr2788     O2814   2.436       .  S
Zr2788     O2815   2.435       .  S
Zr2788     O2790   2.435       .  S
Zr2788     O2791   2.390       .  S
Zr2788     O2792   2.393       .  S
O2789      H2826   0.990       .  S
O2790      H2821   0.990       .  S
O2790      H2835   0.990       .  S
O2792      H2818   0.966       .  S
O2793     Zr2803   2.373       .  S
O2794     Zr2803   2.370       .  S
O2794      H2819   0.966       .  S
O2798      H2834   0.990       .  S
O2799      C2801   1.280       .  A
O2800      C2801   1.281       .  A
O2802     Zr2803   2.439       .  S
O2802      H2831   0.990       .  S
Zr2803     O2806   2.438       .  S
Zr2803     O2807   2.439       .  S
Zr2803     O2808   2.443       .  S
O2804      C2809   1.284       .  A
O2805      H2822   0.991       .  S
O2805      H2837   0.990       .  S
O2806      H2823   0.990       .  S
O2807      H2827   0.990       .  S
O2807      H2836   0.990       .  S
O2808      C2809   1.287       .  A
O2810      H2829   0.990       .  S
O2810      H2833   0.991       .  S
O2811      H2825   0.990       .  S
O2811      H2832   0.990       .  S
O2812      C2816   1.280       .  A
O2813      C2816   1.284       .  A
O2814      H2824   0.990       .  S
O2815      H2828   0.990       .  S
Zr2839     O2840   2.437       .  S
Zr2839     O2841   2.410       .  S
Zr2839     O2842   2.415       .  S
Zr2839     O2845   2.411       .  S
Zr2839     O2847   2.374       .  S
Zr2839     O2848   2.377       .  S
Zr2839     O2849   2.394       .  S
Zr2839     O2850   2.392       .  S
O2840      H2896   0.990       .  S
O2840      H2904   0.990       .  S
O2841      C2861   1.280       .  A
O2842      C2863   1.281       .  A
O2843     Zr2853   2.437       .  S
O2843      C2862   1.284       .  A
O2844     Zr2852   2.429       .  S
O2844      C2863   1.284       .  A
O2845      C2862   1.281       .  A
O2846     Zr2854   2.426       .  S
O2846      C2861   1.281       .  A
O2847     Zr2852   2.386       .  S
O2847     Zr2854   2.368       .  S
O2848     Zr2853   2.383       .  S
O2848     Zr2854   2.376       .  S
O2848      H2883   0.966       .  S
O2849     Zr2852   2.398       .  S
O2849     Zr2869   2.400       .  S
O2849      H2886   0.966       .  S
O2850     Zr2853   2.394       .  S
O2850     Zr2869   2.399       .  S
Zr2851     O2876   2.441       .  S
Zr2851     O2870   2.421       .  S
Zr2851     O2878   2.405       .  S
Zr2851     O2866   2.415       .  S
Zr2851     O2857   2.398       .  S
Zr2851     O2858   2.396       .  S
Zr2851     O2859   2.374       .  S
Zr2851     O2860   2.373       .  S
Zr2852     O2871   2.435       .  S
Zr2852     O2864   2.435       .  S
Zr2852     O2865   2.427       .  S
Zr2852     O2858   2.399       .  S
Zr2852     O2859   2.392       .  S
Zr2853     O2855   2.434       .  S
Zr2853     O2877   2.437       .  S
Zr2853     O2879   2.423       .  S
Zr2853     O2857   2.396       .  S
Zr2853     O2860   2.391       .  S
Zr2854     O2880   2.434       .  S
Zr2854     O2881   2.435       .  S
Zr2854     O2856   2.440       .  S
Zr2854     O2857   2.398       .  S
Zr2854     O2858   2.393       .  S
O2855      H2892   0.990       .  S
O2856      H2887   0.990       .  S
O2856      H2901   0.990       .  S
O2858      H2884   0.965       .  S
O2859     Zr2869   2.374       .  S
O2860     Zr2869   2.378       .  S
O2860      H2885   0.966       .  S
C2861      C3766   1.462       .  S
C2862      C3789   1.468       .  S
C2863      C3725   1.481       .  S
O2864      H2900   0.990       .  S
O2865      C2867   1.282       .  A
O2866      C2867   1.281       .  A
C2867      C3894   1.463       .  S
O2868     Zr2869   2.435       .  S
O2868      H2897   0.990       .  S
Zr2869     O2872   2.435       .  S
Zr2869     O2873   2.440       .  S
Zr2869     O2874   2.425       .  S
O2870      C2875   1.283       .  A
O2871      H2888   0.990       .  S
O2871      H2903   0.990       .  S
O2872      H2889   0.989       .  S
O2873      H2893   0.990       .  S
O2873      H2902   0.989       .  S
O2874      C2875   1.281       .  A
C2875      C3917   1.485       .  S
O2876      H2895   0.990       .  S
O2876      H2899   0.991       .  S
O2877      H2891   0.990       .  S
O2877      H2898   0.990       .  S
O2878      C2882   1.280       .  A
O2879      C2882   1.281       .  A
O2880      H2890   0.989       .  S
O2881      H2894   0.990       .  S
C2882      C4013   1.456       .  S
C2905      N2906   1.353       .  A
C2905      N2910   1.352       .  A
C2905      C3702   1.485       .  S
N2906      C2907   1.358       .  A
C2907      N2908   1.371   1_565  A
C2907      C2965   1.481   1_565  S
N2908      C2909   1.370       .  A
C2909      N2910   1.355   1_545  A
C2909      C3661   1.488       .  S
C2911      N2912   1.352       .  A
C2911      N2916   1.355       .  A
C2911      C3798   1.476       .  S
N2912      C2913   1.357       .  A
C2913      N2914   1.368       .  A
C2913      C2984   1.475       .  S
N2914      C2915   1.369       .  A
C2915      N2916   1.358       .  A
C2915      C3670   1.498       .  S
C2917      N2918   1.351       .  A
C2917      N2922   1.355       .  A
C2917      C3638   1.461       .  S
N2918      C2919   1.352       .  A
C2919      N2920   1.360       .  A
C2919      C3606   1.473       .  S
N2920      C2921   1.363       .  A
C2921      N2922   1.359       .  A
C2921      C2977   1.467       .  S
C2923      N2924   1.354       .  A
C2923      N2928   1.353       .  A
C2923      C3757   1.467       .  S
N2924      C2925   1.356       .  A
C2925      N2926   1.365       .  A
C2925      C3597   1.494       .  S
N2926      C2927   1.363       .  A
C2927      N2928   1.356       .  A
C2927      C2963   1.468       .  S
C2929      N2930   1.358       .  A
C2929      N2934   1.360       .  A
C2929      C3574   1.468       .  S
N2930      C2931   1.355       .  A
C2931      N2932   1.352       .  A
C2931      C3533   1.472       .  S
N2932      C2933   1.351       .  A
C2933      N2934   1.358       .  A
C2933      C2964   1.451       .  S
C2935      N2936   1.358       .  A
C2935      N2940   1.357       .  A
N2936      C2937   1.355       .  A
C2937      N2938   1.352       .  A
C2937      C3542   1.466       .  S
N2938      C2939   1.353       .  A
C2939      N2940   1.356       .  A
Zr2941     O2942   2.435       .  S
Zr2941     O2943   2.431       .  S
Zr2941     O2944   2.437       .  S
Zr2941     O2947   2.428       .  S
Zr2941     O4317   2.379       .  S
Zr2941     O2950   2.388       .  S
Zr2941     O4319   2.403       .  S
Zr2941     O4320   2.399       .  S
O2942      H2998   0.990       .  S
O2942      H3006   0.990       .  S
O2943      C2963   1.282       .  A
O2944      C4333   1.285       .  A
O2945     Zr2955   2.413   1_655  S
O2945      C2964   1.281       .  A
O2946     Zr2954   2.443       .  S
O2946      C2965   1.284       .  A
O2947      C2964   1.282       .  A
O2948     Zr2956   2.429       .  S
O2948      C2963   1.284       .  A
O2949     Zr4309   2.375   1_545  S
O2949     Zr2954   2.393       .  S
O2949     Zr4324   2.384       .  S
O2950     Zr2955   2.390   1_655  S
O2950     Zr2956   2.379       .  S
O2950      H2985   0.966       .  S
O2951     Zr4309   2.404   1_545  S
O2951     Zr2954   2.398       .  S
O2951     Zr2971   2.390       .  S
O2951      H2988   0.965       .  S
O2952     Zr4309   2.409   1_545  S
O2952     Zr4323   2.391       .  S
O2952     Zr2971   2.392       .  S
Zr2953     O2978   2.440       .  S
Zr2953     O2972   2.425       .  S
Zr2953     O2980   2.436       .  S
Zr2953     O2968   2.424       .  S
Zr2953     O2962   2.380       .  S
Zr2954     O2973   2.437       .  S
Zr2954     O2966   2.434       .  S
Zr2954     O2967   2.414       .  S
Zr2954     O2960   2.403       .  S
Zr2954     O2961   2.396       .  S
Zr2955     O2979   2.438       .  S
Zr2955     O4320   2.395   1_455  S
Zr2955     O4327   2.386       .  S
Zr2956     O2982   2.436       .  S
Zr2956     O4351   2.439       .  S
Zr2956     O4326   2.438       .  S
Zr2956     O4317   2.376       .  S
Zr2956     O4327   2.400   1_655  S
Zr2956     O4328   2.402       .  S
O2957      H2994   0.990       .  S
O2958     Zr4324   2.436       .  S
O2958      H4357   0.990   1_545  S
O2958      H4371   0.990       .  S
O2959     Zr4323   2.392   1_455  S
O2959     Zr4324   2.388   1_455  S
O2960     Zr4324   2.389       .  S
O2960      H2986   0.966       .  S
O2961     Zr2971   2.375       .  S
O2962      H2987   0.966       .  S
C2965      O4312   1.290   1_545  A
O2966      H3002   0.990       .  S
O2967      C2969   1.281       .  A
O2970     Zr2971   2.440       .  S
O2970      H2999   0.990       .  S
Zr2971     O2974   2.437       .  S
O2972      C2977   1.282       .  A
O2973      H2990   0.990       .  S
O2973      H3005   0.990       .  S
O2975      H2995   0.990       .  S
O2975      H3004   0.990       .  S
O2976      C2977   1.284       .  A
O2978      H2997   0.991       .  S
O2978      H3001   0.990       .  S
O2979      H3000   0.990       .  S
O2980      C2984   1.287       .  A
O2981      C2984   1.284       .  A
O2982      H2992   0.990       .  S
O2983     Zr4324   2.436       .  S
O2983      H2996   0.990   1_655  S
H2989      O4326   0.990       .  S
H3003      O4326   0.990       .  S
C3007      N3008   1.359       .  A
C3007      N3012   1.366       .  A
C3007      C3501   1.480       .  S
N3008      C3009   1.352       .  A
C3009      N3010   1.352       .  A
C3009      C3478   1.483       .  S
N3010      C3011   1.358       .  A
C3011      N3012   1.364       .  A
C3011      C3066   1.473       .  S
C3013      N3014   1.360       .  A
C3013      N3018   1.359       .  A
C3013      C3437   1.486       .  S
N3014      C3015   1.356       .  A
C3015      N3016   1.349       .  A
C3015      C3469   1.490       .  S
N3016      C3017   1.352       .  A
C3017      N3018   1.358       .  A
C3017      C3071   1.458       .  S
C3019      N3020   1.358       .  A
C3019      N3024   1.356       .  A
C3019      C3414   1.473       .  S
N3020      C3021   1.359       .  A
C3021      N3022   1.360       .  A
C3021      C3067   1.460       .  S
N3022      C3023   1.359       .  A
C3023      N3024   1.355       .  A
C3023      C4750   1.483       .  S
C3025      N3026   1.363       .  A
C3025      N3030   1.356       .  A
C3025      C3341   1.491       .  S
N3026      C3027   1.360       .  A
C3027      N3028   1.357       .  A
C3027      C3373   1.483       .  S
N3028      C3029   1.353       .  A
C3029      N3030   1.354       .  A
C3029      C3086   1.454       .  S
C3031      N3032   1.350       .  A
C3031      N3036   1.351       .  A
C3031      C3309   1.482       .  S
N3032      C3033   1.355       .  A
C3033      N3034   1.370       .  A
C3033      C3286   1.490       .  S
N3034      C3035   1.369       .  A
C3035      N3036   1.360       .  A
C3035      C3065   1.479       .  S
C3037      N3038   1.350       .  A
C3037      N3042   1.356       .  A
C3037      C3245   1.490       .  S
N3038      C3039   1.353       .  A
C3039      N3040   1.366       .  A
C3039      C3277   1.482   1_655  S
N3040      C3041   1.367       .  A
C3041      N3042   1.361       .  A
C3041      C3079   1.478       .  S
Zr3043     O3044   2.441       .  S
Zr3043     O3045   2.466       .  S
Zr3043     O3046   2.460       .  S
Zr3043     O3049   2.472       .  S
Zr3043     O3051   2.394       .  S
Zr3043     O3052   2.395       .  S
Zr3043     O3053   2.424       .  S
Zr3043     O3054   2.393       .  S
O3044      H3100   0.990       .  S
O3044      H3108   0.990       .  S
O3045      C3065   1.287       .  A
O3046      C3067   1.287       .  A
O3047     Zr3057   2.411       .  S
O3047      C3066   1.282       .  A
O3048     Zr3056   2.407       .  S
O3048      C3067   1.278       .  A
O3049      C3066   1.290       .  A
O3050     Zr3058   2.416       .  S
O3050      C3065   1.282       .  A
O3051     Zr3056   2.395       .  S
O3051     Zr3058   2.374       .  S
O3052     Zr3057   2.382       .  S
O3052     Zr3058   2.382       .  S
O3052      H3087   0.966       .  S
O3053     Zr3056   2.400       .  S
O3053     Zr3073   2.404       .  S
O3053      H3090   0.966       .  S
O3054     Zr3057   2.387       .  S
O3054     Zr3073   2.383       .  S
Zr3055     O3080   2.440       .  S
Zr3055     O3074   2.450       .  S
Zr3055     O3082   2.430       .  S
Zr3055     O3070   2.417       .  S
Zr3055     O3061   2.402       .  S
Zr3055     O3062   2.411       .  S
Zr3055     O3063   2.380       .  S
Zr3055     O3064   2.378       .  S
Zr3056     O3075   2.438       .  S
Zr3056     O3068   2.435       .  S
Zr3056     O3069   2.420       .  S
Zr3056     O3062   2.387       .  S
Zr3056     O3063   2.384       .  S
Zr3057     O3059   2.435       .  S
Zr3057     O3081   2.437       .  S
Zr3057     O3083   2.418       .  S
Zr3057     O3061   2.387       .  S
Zr3057     O3064   2.388       .  S
Zr3058     O3084   2.436       .  S
Zr3058     O3085   2.434       .  S
Zr3058     O3060   2.438       .  S
Zr3058     O3061   2.395       .  S
Zr3058     O3062   2.396       .  S
O3059      H3096   0.990       .  S
O3060      H3091   0.990       .  S
O3060      H3105   0.989       .  S
O3062      H3088   0.966       .  S
O3063     Zr3073   2.364       .  S
O3064     Zr3073   2.380       .  S
O3064      H3089   0.966       .  S
O3068      H3104   0.990       .  S
O3069      C3071   1.284       .  A
O3070      C3071   1.281       .  A
O3072     Zr3073   2.435       .  S
O3072      H3101   0.990       .  S
Zr3073     O3076   2.437       .  S
Zr3073     O3077   2.437       .  S
Zr3073     O3078   2.425       .  S
O3074      C3079   1.286       .  A
O3075      H3092   0.990       .  S
O3075      H3107   0.990       .  S
O3076      H3093   0.990       .  S
O3077      H3097   0.990       .  S
O3077      H3106   0.990       .  S
O3078      C3079   1.283       .  A
O3080      H3099   0.991       .  S
O3080      H3103   0.990       .  S
O3081      H3095   0.990       .  S
O3081      H3102   0.990       .  S
O3082      C3086   1.282       .  A
O3083      C3086   1.281       .  A
O3084      H3094   0.990       .  S
O3085      H3098   0.990       .  S
Zr3109     O3111   2.429       .  S
Zr3109     O4480   2.415   1_545  S
Zr3109     O3117   2.369       .  S
Zr3109     O3118   2.378   1_655  S
Zr3109     O3119   2.397   1_545  S
O3110      H3166   0.990       .  S
O3110      H3174   0.991   1_545  S
O3111      C3131   1.285       .  A
O3112     Zr4477   2.419       .  S
O3112      C3133   1.283       .  A
O3113     Zr3123   2.445       .  S
O3113      C3132   1.286       .  A
O3114     Zr3122   2.441       .  S
O3114      C3133   1.285       .  A
O3115      C3132   1.280       .  A
O3116     Zr3124   2.423       .  S
O3116      C3131   1.282       .  A
O3117     Zr4490   2.385   1_545  S
O3117     Zr3124   2.376       .  S
O3118     Zr3124   2.370   1_455  S
O3118      H3153   0.966       .  S
O3119     Zr4490   2.396       .  S
O3119      H4524   0.965       .  S
O3120     Zr3123   2.394       .  S
O3120     Zr3139   2.396   1_545  S
Zr3121     O3146   2.438       .  S
Zr3121     O3140   2.419   1_545  S
Zr3121     O3148   2.406   1_655  S
Zr3121     O4504   2.419   1_545  S
Zr3121     O3127   2.392   1_554  S
Zr3121     O4496   2.395   1_554  S
Zr3121     O4497   2.373   1_545  S
Zr3122     O3141   2.435       .  S
Zr3122     O3134   2.434       .  S
Zr3122     O3135   2.440   1_556  S
Zr3122     O4485   2.393       .  S
Zr3122     O4487   2.402       .  S
Zr3122     O3128   2.401       .  S
Zr3122     O3129   2.387   1_556  S
Zr3123     O3125   2.435       .  S
Zr3123     O3149   2.430   1_556  S
Zr3123     O3130   2.393   1_556  S
Zr3124     O3150   2.439       .  S
Zr3124     O3151   2.434       .  S
Zr3124     O4494   2.435       .  S
Zr3124     O3127   2.386       .  S
Zr3124     O4496   2.397       .  S
O3125      H3162   0.990       .  S
O3126     Zr4492   2.435       .  S
O3126      H3157   0.990       .  S
O3126      H3171   0.990       .  S
O3128     Zr4489   2.398   1_556  S
O3128     Zr4492   2.402       .  S
O3128      H3154   0.965   1_556  S
O3129     Zr4489   2.370       .  S
O3130     Zr3139   2.373   1_544  S
O3130      H3155   0.966       .  S
C3131      C3446   1.487       .  S
C3132      C3318   1.472       .  S
C3133      C3350   1.476       .  S
O3134      H3170   0.990       .  S
O3135      C3137   1.285       .  A
O3136     Zr4489   2.415       .  S
O3136      C3137   1.281       .  A
C3137      C3821   1.475       .  S
O3138     Zr3139   2.436       .  S
O3138      H3167   0.990       .  S
Zr3139     O4510   2.435   1_556  S
Zr3139     O3143   2.438   1_566  S
Zr3139     O3144   2.426   1_556  S
O3141      H3158   0.990       .  S
O3141      H3173   0.990       .  S
O3142     Zr4507   2.435   1_554  S
O3142      H3159   0.990       .  S
O3143      H3163   0.990       .  S
O3143      H3172   0.990       .  S
O3144      C3145   1.282       .  A
C3145      C4086   1.465       .  S
O3146      H3165   0.990       .  S
O3146      H3169   0.990       .  S
O3147      H3168   0.990       .  S
O3148      C3152   1.282       .  A
O3150      H3160   0.990       .  S
O3151      H3164   0.990   1_556  S
H3156      O4487   0.965       .  S
Zr3175     O3176   2.439       .  S
Zr3175     O3177   2.428       .  S
Zr3175     O3178   2.409       .  S
Zr3175     O3181   2.403       .  S
Zr3175     O3183   2.372       .  S
Zr3175     O3184   2.377       .  S
Zr3175     O3185   2.399       .  S
Zr3175     O3186   2.396       .  S
O3176      H3232   0.990       .  S
O3176      H3240   0.990       .  S
O3177      C3197   1.284       .  A
O3178      C3199   1.279       .  A
O3179     Zr3189   2.435       .  S
O3179      C3198   1.284       .  A
O3180     Zr3188   2.446       .  S
O3180      C3199   1.286       .  A
O3181      C3198   1.281       .  A
O3182     Zr3190   2.419       .  S
O3182      C3197   1.280       .  A
O3183     Zr3188   2.392       .  S
O3183     Zr3190   2.376       .  S
O3184     Zr3189   2.386       .  S
O3184     Zr3190   2.373       .  S
O3184      H3219   0.967       .  S
O3185     Zr3188   2.397       .  S
O3185     Zr3205   2.395       .  S
O3185      H3222   0.966       .  S
O3186     Zr3189   2.394       .  S
O3186     Zr3205   2.397       .  S
Zr3187     O3212   2.440       .  S
Zr3187     O3206   2.409       .  S
Zr3187     O3214   2.409       .  S
Zr3187     O3202   2.405       .  S
Zr3187     O3193   2.392       .  S
Zr3187     O3194   2.391       .  S
Zr3187     O3195   2.376       .  S
Zr3187     O3196   2.376       .  S
Zr3188     O3207   2.437       .  S
Zr3188     O3200   2.434       .  S
Zr3188     O3201   2.440       .  S
Zr3188     O3194   2.400       .  S
Zr3188     O3195   2.387       .  S
Zr3189     O3191   2.435       .  S
Zr3189     O3213   2.435       .  S
Zr3189     O3215   2.440       .  S
Zr3189     O3193   2.399       .  S
Zr3189     O3196   2.383       .  S
Zr3190     O3216   2.435       .  S
Zr3190     O3217   2.435       .  S
Zr3190     O3192   2.436       .  S
Zr3190     O3193   2.402       .  S
Zr3190     O3194   2.387       .  S
O3191      H3228   0.990       .  S
O3192      H3223   0.990       .  S
O3192      H3237   0.990       .  S
O3194      H3220   0.966       .  S
O3195     Zr3205   2.373       .  S
O3196     Zr3205   2.367       .  S
O3196      H3221   0.966       .  S
C3197      C3405   1.490       .  S
C3198      C3254   1.465       .  S
C3199      C3510   1.478       .  S
O3200      H3236   0.990       .  S
O3201      C3203   1.286       .  A
O3202      C3203   1.281       .  A
C3203      C3693   1.465       .  S
O3204     Zr3205   2.438       .  S
O3204      H3233   0.990       .  S
Zr3205     O3208   2.436       .  S
Zr3205     O3209   2.439       .  S
Zr3205     O3210   2.433       .  S
O3206      C3211   1.280       .  A
O3207      H3224   0.990       .  S
O3207      H3239   0.990       .  S
O3208      H3225   0.990       .  S
O3209      H3229   0.990       .  S
O3209      H3238   0.990       .  S
O3210      C3211   1.284       .  A
C3211      C3629   1.469       .  S
O3212      H3231   0.990       .  S
O3212      H3235   0.990       .  S
O3213      H3227   0.990       .  S
O3213      H3234   0.990       .  S
O3214      C3218   1.281       .  A
O3215      C3218   1.286       .  A
O3216      H3226   0.990       .  S
O3217      H3230   0.990       .  S
C3218      C3565   1.470       .  S
C3241      C3242   1.396       .  A
C3241      C3246   1.399       .  A
C3242      C3247   1.475       .  S
C3242      C3243   1.406   1_455  A
C3243      C3244   1.405       .  A
C3243      C3248   1.505       .  S
C3244      C3245   1.411       .  A
C3244      H3249   1.084       .  S
C3245      C3246   1.424   1_655  A
C3246      C3250   1.510       .  S
C3247      C3256   1.401       .  A
C3248      H3264   1.111       .  S
C3248      H3265   1.110       .  S
C3248      H3266   1.111       .  S
C3250      H3261   1.108       .  S
C3250      H3262   1.111       .  S
C3250      H3263   1.110       .  S
C3252      C3253   1.397       .  A
C3252      C3257   1.508       .  S
C3253      C3254   1.402       .  A
C3253      H3258   1.085       .  S
C3254      C3255   1.415       .  A
C3256      H3260   1.085   1_455  S
C3257      H3267   1.110       .  S
C3257      H3268   1.110       .  S
C3257      H3269   1.109       .  S
C3259      H3270   1.111       .  S
C3259      H3272   1.110   1_455  S
C3273      C3274   1.399       .  A
C3273      C3278   1.406       .  A
C3273      H3283   1.084       .  S
C3274      C3279   1.487       .  S
C3275      C3276   1.407       .  A
C3275      C3280   1.506       .  S
C3276      C3277   1.403       .  A
C3276      H3281   1.084   1_455  S
C3278      C3282   1.509       .  S
C3279      C3284   1.414       .  A
C3279      C3288   1.396       .  A
C3280      H3297   1.109       .  S
C3280      H3298   1.111   1_455  S
C3282      H3293   1.108       .  S
C3282      H3294   1.111       .  S
C3284      C3285   1.411       .  A
C3284      C3289   1.505       .  S
C3285      C3286   1.405       .  A
C3285      H3290   1.084       .  S
C3286      C3287   1.424       .  A
C3287      C3288   1.402       .  A
C3287      C3291   1.510       .  S
C3288      H3292   1.084       .  S
C3289      H3299   1.111       .  S
C3289      H3300   1.110       .  S
C3289      H3301   1.109       .  S
C3291      H3302   1.111       .  S
C3291      H3303   1.110       .  S
C3291      H3304   1.109       .  S
C3305      C3306   1.400       .  A
C3305      C3310   1.406       .  A
C3305      H3315   1.084       .  S
C3306      C3311   1.478       .  S
C3306      C3307   1.410       .  A
C3307      C3308   1.399       .  A
C3307      C3312   1.508       .  S
C3308      C3309   1.404       .  A
C3308      H3313   1.084       .  S
C3309      C3310   1.420       .  A
C3310      C3314   1.508       .  S
C3311      C3316   1.409       .  A
C3311      C3320   1.403       .  A
C3312      H3328   1.110       .  S
C3312      H3329   1.110       .  S
C3312      H3330   1.111       .  S
C3314      H3325   1.109       .  S
C3314      H3326   1.111       .  S
C3314      H3327   1.111       .  S
C3316      C3317   1.399       .  A
C3316      C3321   1.507       .  S
C3317      C3318   1.404       .  A
C3317      H3322   1.085       .  S
C3318      C3319   1.413       .  A
C3319      C3320   1.405       .  A
C3320      H3324   1.084       .  S
C3321      H3331   1.111       .  S
C3321      H3332   1.110       .  S
C3321      H3333   1.110       .  S
C3323      H3334   1.111       .  S
C3323      H3335   1.110       .  S
C3323      H3336   1.110       .  S
C3337      C3338   1.398       .  A
C3337      C3342   1.407       .  A
C3337      H3347   1.084       .  S
C3338      C3343   1.479       .  S
C3338      C3339   1.410       .  A
C3339      C3340   1.400       .  A
C3339      C3344   1.508       .  S
C3340      C3341   1.406       .  A
C3340      H3345   1.083       .  S
C3341      C3342   1.425       .  A
C3342      C3346   1.509       .  S
C3343      C3348   1.410       .  A
C3343      C3352   1.402       .  A
C3344      H3360   1.110       .  S
C3344      H3361   1.110       .  S
C3346      H3357   1.110       .  S
C3346      H3358   1.111       .  S
C3346      H3359   1.110       .  S
C3348      C3349   1.401       .  A
C3348      C3353   1.507       .  S
C3349      C3350   1.404       .  A
C3349      H3354   1.084       .  S
C3350      C3351   1.415       .  A
C3351      C3352   1.405       .  A
C3351      C3355   1.506       .  S
C3352      H3356   1.084       .  S
C3353      H3363   1.111       .  S
C3353      H3364   1.110       .  S
C3353      H3365   1.110       .  S
C3355      H3366   1.109       .  S
C3355      H3367   1.110       .  S
C3355      H3368   1.111       .  S
C3369      C3370   1.402       .  A
C3369      H3379   1.084       .  S
C3370      C3375   1.477       .  S
C3370      C3371   1.408       .  A
C3371      C3376   1.508       .  S
C3372      C3373   1.406       .  A
C3372      H3377   1.084       .  S
C3373      C3374   1.416   1_655  A
C3374      C3378   1.506       .  S
C3375      C3380   1.411       .  A
C3375      C3384   1.399       .  A
C3376      H3392   1.109       .  S
C3376      H3393   1.110       .  S
C3376      H3394   1.111       .  S
C3378      H3389   1.111       .  S
C3378      H3390   1.110       .  S
C3378      H3391   1.108       .  S
C3380      C3381   1.403       .  A
C3381      C3382   1.402       .  A
C3381      H3386   1.084       .  S
C3382      C4391   1.474       .  S
C3382      C3383   1.417       .  A
C3383      C3384   1.401       .  A
C3383      C3387   1.509       .  S
C3384      H3388   1.084       .  S
C3385      H3395   1.111       .  S
C3385      H3396   1.110       .  S
C3385      H3397   1.110       .  S
C3387      H4766   1.111       .  S
C3387      H4767   1.110       .  S
C3387      H3400   1.109       .  S
H3398      C4755   1.111       .  S
H3399      C4755   1.110       .  S
C3401      C3402   1.397       .  A
C3401      C3406   1.404       .  A
C3401      H4779   1.084       .  S
C3402      C3407   1.477       .  S
C3402      C3403   1.408       .  A
C3403      C3404   1.400       .  A
C3403      C3408   1.508       .  S
C3404      C3405   1.409       .  A
C3404      H3409   1.084       .  S
C3405      C3406   1.424       .  A
C3406      C3410   1.509       .  S
C3407      C3412   1.410       .  A
C3407      C4784   1.400       .  A
C3408      H3424   1.110       .  S
C3408      H3425   1.110       .  S
C3408      H3426   1.111       .  S
C3410      H3421   1.111       .  S
C3410      H4790   1.109       .  S
C3410      H3423   1.110       .  S
H3411      C4769   1.084       .  S
C3412      C3413   1.403       .  A
C3412      C3417   1.506       .  S
C3413      C4782   1.403       .  A
C3413      H3418   1.084       .  S
C3414      C4781   1.405       .  A
C3414      C3415   1.414       .  A
C3415      C3416   1.399       .  A
C3415      C3419   1.507       .  S
C3416      C4775   1.399       .  A
C3416      H3420   1.085       .  S
C3417      H3427   1.111       .  S
C3417      H3428   1.110       .  S
C3417      H3429   1.111       .  S
C3419      H3430   1.110       .  S
C3419      H3431   1.108       .  S
C3419      H3432   1.110       .  S
H3422      C4778   1.110       .  S
C3433      C3434   1.401       .  A
C3433      C3438   1.408       .  A
C3433      H3443   1.084       .  S
C3434      C3439   1.476       .  S
C3434      C3435   1.407       .  A
C3435      C3436   1.395       .  A
C3435      C3440   1.507       .  S
C3436      C3437   1.407       .  A
C3436      H3441   1.083       .  S
C3437      C3438   1.421       .  A
C3438      C3442   1.507       .  S
C3439      C3444   1.407       .  A
C3439      C3448   1.397       .  A
C3440      H3456   1.110       .  S
C3440      H3457   1.108       .  S
C3440      H3458   1.111       .  S
C3442      H4821   1.111       .  S
C3442      H3454   1.109       .  S
C3442      H3455   1.110       .  S
C3444      C3445   1.403       .  A
C3444      C3449   1.506       .  S
C3445      C3446   1.408       .  A
C3445      H3450   1.084       .  S
C3446      C3447   1.422       .  A
C3447      C3448   1.402       .  A
C3447      C3451   1.508       .  S
C3448      H3452   1.085       .  S
C3449      H4827   1.109   1_655  S
C3449      H4828   1.110       .  S
C3449      H3461   1.109       .  S
C3451      H3462   1.110       .  S
C3451      H3463   1.109       .  S
C3451      H3464   1.111       .  S
H3453      C4810   1.111       .  S
H3459      C4817   1.109   1_455  S
H3460      C4817   1.110       .  S
C3465      C4834   1.394       .  A
C3465      C3470   1.400   1_565  A
C3465      H3475   1.085       .  S
C3466      C3471   1.479       .  S
C3466      C4833   1.397       .  A
C3466      C3467   1.407       .  A
C3467      C4836   1.404       .  A
C3467      C3472   1.506       .  S
C3468      C4835   1.399   1_545  A
C3468      C3469   1.411       .  A
C3468      H4841   1.083       .  S
C3469      C3470   1.427       .  A
C3470      C3474   1.510       .  S
C3471      C3476   1.409       .  A
C3471      C3480   1.400       .  A
C3472      H3488   1.110       .  S
C3472      H3489   1.110       .  S
C3472      H3490   1.111       .  S
H3473      C4836   1.084       .  S
C3474      H3485   1.110       .  S
C3474      H3486   1.111       .  S
C3474      H3487   1.110       .  S
C3476      C3477   1.401       .  A
C3476      C3481   1.507       .  S
C3477      C3478   1.405       .  A
C3477      H3482   1.084       .  S
C3478      C3479   1.419       .  A
C3479      C3480   1.406       .  A
C3479      C3483   1.507       .  S
C3480      H4852   1.084       .  S
C3481      H3491   1.111       .  S
C3481      H3492   1.110       .  S
C3481      H3493   1.110       .  S
C3483      H4862   1.109       .  S
C3483      H3495   1.110       .  S
C3483      H3496   1.111       .  S
H3484      C4848   1.084       .  S
H3494      C4851   1.110       .  S
C3497      C3498   1.403       .  A
C3497      C3502   1.407       .  A
C3497      H3507   1.084       .  S
C3498      C3503   1.479       .  S
C3498      C3499   1.408       .  A
C3499      C3500   1.401       .  A
C3499      C3504   1.507       .  S
C3500      C3501   1.406       .  A
C3500      H3505   1.084       .  S
C3501      C3502   1.414       .  A
C3502      C3506   1.506       .  S
C3503      C3508   1.409       .  A
C3503      C3512   1.399       .  A
C3504      H3520   1.110       .  S
C3504      H3521   1.110       .  S
C3504      H3522   1.111       .  S
C3506      H3517   1.111       .  S
C3506      H3518   1.110       .  S
C3506      H3519   1.110       .  S
C3508      C3509   1.408       .  A
C3508      C3513   1.505       .  S
C3509      C3510   1.407       .  A
C3509      H3514   1.084       .  S
C3510      C3511   1.418       .  A
C3511      C3512   1.399       .  A
C3511      C3515   1.511       .  S
C3512      H3516   1.085       .  S
C3513      H3523   1.111       .  S
C3513      H3524   1.110       .  S
C3513      H3525   1.110       .  S
C3515      H3526   1.109       .  S
C3515      H3527   1.110       .  S
C3515      H3528   1.111       .  S
C3529      C3530   1.402       .  A
C3529      C3534   1.403       .  A
C3529      H3539   1.084       .  S
C3530      C3535   1.473       .  S
C3530      C3531   1.408       .  A
C3531      C3532   1.398       .  A
C3531      C3536   1.507   1_655  S
C3532      C3533   1.405       .  A
C3532      H3537   1.084   1_655  S
C3533      C3534   1.413       .  A
C3534      C3538   1.507       .  S
C3535      C3544   1.398       .  A
C3536      H3552   1.110       .  S
C3536      H3554   1.111       .  S
C3538      H3549   1.109       .  S
C3538      H3550   1.111       .  S
C3538      H3551   1.111       .  S
C3540      C3541   1.399       .  A
C3540      C3545   1.508       .  S
C3541      C3542   1.401       .  A
C3541      H3546   1.085       .  S
C3543      C3544   1.400       .  A
C3543      C3547   1.509       .  S
C3544      H3548   1.085       .  S
C3545      H3555   1.111       .  S
C3545      H3556   1.109       .  S
C3545      H3557   1.110       .  S
C3547      H3558   1.111       .  S
C3547      H3559   1.110       .  S
C3547      H3560   1.110       .  S
C3561      C3562   1.400       .  A
C3561      H3571   1.084   1_455  S
C3562      C3567   1.473   1_455  S
C3563      C3564   1.395       .  A
C3563      C3568   1.509       .  S
C3564      C3565   1.404       .  A
C3564      H3569   1.085       .  S
C3565      C3566   1.415       .  A
C3566      C3570   1.507       .  S
C3567      C3572   1.408       .  A
C3567      C3576   1.398   1_655  A
C3568      H3584   1.110       .  S
C3568      H3586   1.111       .  S
C3570      H3582   1.111       .  S
C3570      H3583   1.107       .  S
C3572      C3573   1.404       .  A
C3572      C3577   1.506       .  S
C3573      C3574   1.405       .  A
C3573      H3578   1.084       .  S
C3574      C3575   1.416       .  A
C3575      C3576   1.397   1_655  A
C3575      C3579   1.510   1_655  S
C3577      H3587   1.111       .  S
C3577      H3588   1.110       .  S
C3577      H3589   1.108       .  S
C3579      H3591   1.104       .  S
C3593      C3594   1.397       .  A
C3593      C3598   1.403       .  A
C3593      H3603   1.085       .  S
C3594      C3599   1.479       .  S
C3594      C3595   1.409       .  A
C3595      C3596   1.405       .  A
C3595      C3600   1.506       .  S
C3596      C3597   1.409       .  A
C3596      H3601   1.083       .  S
C3597      C3598   1.425       .  A
C3598      C3602   1.509       .  S
C3599      C3604   1.412       .  A
C3599      C3608   1.398       .  A
C3600      H3616   1.110       .  S
C3600      H3617   1.110       .  S
C3600      H3618   1.111       .  S
C3602      H3613   1.109       .  S
C3602      H3614   1.111       .  S
C3602      H3615   1.110       .  S
C3604      C3605   1.405       .  A
C3604      C3609   1.505       .  S
C3605      C3606   1.402       .  A
C3605      H3610   1.084       .  S
C3606      C3607   1.418       .  A
C3607      C3608   1.400       .  A
C3607      C3611   1.510       .  S
C3608      H3612   1.085       .  S
C3609      H3619   1.111       .  S
C3609      H3620   1.110       .  S
C3609      H3621   1.110       .  S
C3611      H3622   1.111       .  S
C3611      H3623   1.107       .  S
C3611      H3624   1.110       .  S
C3625      C3626   1.400       .  A
C3625      C3630   1.398       .  A
C3625      H3635   1.085       .  S
C3626      C3631   1.473       .  S
C3626      C3627   1.408       .  A
C3627      C3628   1.402       .  A
C3627      C3632   1.506       .  S
C3628      C3629   1.404       .  A
C3628      H3633   1.084       .  S
C3629      C3630   1.417       .  A
C3630      C3634   1.509       .  S
C3631      C3636   1.410       .  A
C3631      C3640   1.399       .  A
C3632      H3648   1.110       .  S
C3632      H3649   1.110       .  S
C3632      H3650   1.110       .  S
C3634      H3645   1.110       .  S
C3634      H3646   1.111       .  S
C3634      H3647   1.106       .  S
C3636      C3637   1.401       .  A
C3636      C3641   1.506       .  S
C3637      C3638   1.402       .  A
C3637      H3642   1.084       .  S
C3638      C3639   1.414       .  A
C3639      C3640   1.398       .  A
C3639      C3643   1.509       .  S
C3640      H3644   1.085       .  S
C3641      H3651   1.111       .  S
C3641      H3652   1.110       .  S
C3641      H3653   1.110       .  S
C3643      H3654   1.110       .  S
C3643      H3655   1.107       .  S
C3643      H3656   1.110       .  S
C3657      C3658   1.398       .  A
C3657      C3662   1.404       .  A
C3657      H3667   1.084       .  S
C3658      C3663   1.489       .  S
C3658      C3659   1.414       .  A
C3659      C3660   1.411       .  A
C3659      C5032   1.505       .  S
C3660      C3661   1.405       .  A
C3660      H5033   1.084   1_545  S
C3661      C3662   1.421       .  A
C3662      C3666   1.509       .  S
C3663      C3668   1.413       .  A
C3663      C3672   1.396       .  A
C3664      C5027   1.506       .  S
C3664      H3680   1.110       .  S
C3664      H3681   1.110       .  S
C3664      H3682   1.111       .  S
H3665      C5028   1.084       .  S
C3666      H3677   1.108       .  S
C3666      H3678   1.111       .  S
C3666      H3679   1.110       .  S
C3668      C3669   1.412       .  A
C3668      C5041   1.505   1_545  S
C3669      C3670   1.409       .  A
C3669      H5042   1.084       .  S
C3670      C3671   1.424       .  A
C3671      C3672   1.403       .  A
C3671      C3675   1.505       .  S
C3672      H3676   1.084       .  S
C3673      C5036   1.506       .  S
C3673      H3683   1.111       .  S
C3673      H5052   1.110       .  S
C3673      H3685   1.110       .  S
H3674      C5037   1.084       .  S
C3675      H3686   1.111       .  S
C3675      H3687   1.110       .  S
C3675      H3688   1.106       .  S
H3684      C5041   1.110       .  S
C3689      C3690   1.400       .  A
C3689      C3694   1.395       .  A
C3689      H5067   1.085       .  S
C3690      C3695   1.474       .  S
C3690      C3691   1.409       .  A
C3691      C3692   1.405       .  A
C3691      C3696   1.504       .  S
C3692      C3693   1.404       .  A
C3692      H3697   1.084       .  S
C3693      C3694   1.413       .  A
C3694      C3698   1.508       .  S
C3695      C3700   1.409       .  A
C3695      C3704   1.397       .  A
C3696      H3712   1.110       .  S
C3696      H3713   1.109       .  S
C3696      H3714   1.111       .  S
C3698      H3709   1.111       .  S
C3698      H5078   1.110       .  S
C3698      H3711   1.108       .  S
H3699      C5057   1.085       .  S
C3700      C3701   1.401       .  A
C3700      C3705   1.508       .  S
C3701      C5070   1.407       .  A
C3701      H3706   1.084       .  S
C3702      C5069   1.406       .  A
C3702      C3703   1.421       .  A
C3703      C5072   1.404       .  A
C3703      C3707   1.506       .  S
C3704      C5071   1.403       .  A
C3704      H3708   1.084       .  S
C3705      H3715   1.111       .  S
C3705      H3716   1.110       .  S
C3705      H3717   1.109       .  S
C3707      H3718   1.111       .  S
C3707      H3719   1.111   1_565  S
C3707      H3720   1.107       .  S
H3710      C5066   1.110       .  S
C3721      C3722   1.399       .  A
C3721      C3726   1.398       .  A
C3721      H3731   1.085       .  S
C3722      C3727   1.477       .  S
C3722      C3723   1.410       .  A
C3723      C3724   1.404       .  A
C3723      C3728   1.506       .  S
C3724      C3725   1.407       .  A
C3724      H3729   1.084       .  S
C3725      C3726   1.419       .  A
C3726      C3730   1.508       .  S
C3727      C3732   1.410       .  A
C3727      C3736   1.398       .  A
C3730      H3741   1.111       .  S
C3730      H3742   1.109       .  S
C3730      H3743   1.108       .  S
C3732      C3733   1.402       .  A
C3732      C3737   1.508       .  S
C3733      C3734   1.407       .  A
C3733      H3738   1.084   1_655  S
C3734      C3735   1.421       .  A
C3735      C3736   1.401       .  A
C3736      H3740   1.084       .  S
C3737      H3747   1.111   1_655  S
C3737      H3748   1.109       .  S
C3737      H3749   1.110       .  S
C3739      H3751   1.110       .  S
C3739      H3752   1.111       .  S
C3753      C3754   1.400       .  A
C3753      C3758   1.400       .  A
C3753      H3763   1.085       .  S
C3754      C3759   1.470       .  S
C3754      C3755   1.409       .  A
C3755      C3756   1.400       .  A
C3755      C3760   1.507       .  S
C3756      C3757   1.402       .  A
C3756      H3761   1.084       .  S
C3757      C3758   1.414       .  A
C3758      C3762   1.507       .  S
C3759      C3764   1.409       .  A
C3759      C3768   1.399       .  A
C3760      H3776   1.110       .  S
C3760      H3777   1.109       .  S
C3760      H3778   1.111       .  S
C3762      H3773   1.111       .  S
C3762      H3774   1.110       .  S
C3762      H3775   1.108       .  S
C3764      C3765   1.403       .  A
C3764      C3769   1.505       .  S
C3765      C3766   1.403       .  A
C3765      H3770   1.084       .  S
C3766      C3767   1.413       .  A
C3767      C3768   1.396       .  A
C3767      C3771   1.510       .  S
C3768      H3772   1.085       .  S
C3769      H3779   1.111       .  S
C3769      H3780   1.110       .  S
C3769      H3781   1.109       .  S
C3771      H3782   1.111       .  S
C3771      H3783   1.107       .  S
C3771      H3784   1.111       .  S
C3785      C3786   1.402       .  A
C3785      C3790   1.399       .  A
C3785      H3795   1.084       .  S
C3786      C3791   1.479       .  S
C3786      C3787   1.412       .  A
C3787      C3788   1.406       .  A
C3787      C3792   1.506       .  S
C3788      C3789   1.403       .  A
C3788      H3793   1.084       .  S
C3789      C3790   1.411       .  A
C3790      C3794   1.508       .  S
C3791      C3796   1.410       .  A
C3791      C3800   1.401       .  A
C3792      H3808   1.109       .  S
C3792      H3809   1.110       .  S
C3792      H3810   1.111       .  S
C3794      H3805   1.110       .  S
C3794      H3806   1.111       .  S
C3794      H3807   1.108       .  S
C3796      C3797   1.403       .  A
C3796      C3801   1.506       .  S
C3797      C3798   1.405       .  A
C3797      H3802   1.084       .  S
C3798      C3799   1.414       .  A
C3799      C3800   1.400       .  A
C3799      C3803   1.506       .  S
C3800      H3804   1.084       .  S
C3801      H3811   1.111       .  S
C3801      H3812   1.109       .  S
C3801      H3813   1.111       .  S
C3803      H3814   1.109       .  S
C3803      H3815   1.108       .  S
C3803      H3816   1.111       .  S
C3817      C3818   1.398       .  A
C3817      C3822   1.398       .  A
C3817      H3827   1.085       .  S
C3818      C3823   1.476       .  S
C3818      C3819   1.410       .  A
C3819      C3820   1.406       .  A
C3819      C3824   1.506       .  S
C3820      C3821   1.405       .  A
C3820      H3825   1.084       .  S
C3821      C3822   1.416       .  A
C3822      C3826   1.507       .  S
C3823      C3828   1.410       .  A
C3823      C3832   1.400       .  A
C3824      H3840   1.110       .  S
C3824      H3841   1.110       .  S
C3824      H3842   1.111       .  S
C3826      H3837   1.110       .  S
C3826      H3838   1.110       .  S
C3826      H3839   1.108       .  S
C3828      C3829   1.398       .  A
C3828      C3833   1.509       .  S
C3829      C3830   1.404       .  A
C3829      H3834   1.084       .  S
C3830      C3831   1.420       .  A
C3831      C3832   1.407       .  A
C3831      C3835   1.507       .  S
C3832      H3836   1.084       .  S
C3833      H3843   1.111       .  S
C3833      H3844   1.110       .  S
C3833      H3845   1.109       .  S
C3835      H3846   1.109       .  S
C3835      H3847   1.111       .  S
C3835      H3848   1.111       .  S
C3849      C3850   1.400       .  A
C3849      C3854   1.404       .  A
C3849      H3859   1.084       .  S
C3850      C3855   1.485       .  S
C3850      C3851   1.412       .  A
C3851      C3852   1.408       .  A
C3851      C3856   1.506       .  S
C3852      C3853   1.405       .  A
C3852      H3857   1.084       .  S
C3853      C3854   1.418       .  A
C3854      C3858   1.509       .  S
C3855      C3860   1.406       .  A
C3855      C3864   1.406       .  A
C3856      H3872   1.110       .  S
C3856      H3873   1.110       .  S
C3856      H3874   1.111       .  S
C3858      H3869   1.110       .  S
C3858      H3870   1.111       .  S
C3858      H3871   1.109       .  S
C3860      C3861   1.399       .  A
C3860      C3865   1.508       .  S
C3861      C3862   1.412       .  A
C3861      H3866   1.084       .  S
C3862      C3863   1.417       .  A
C3863      C3864   1.413       .  A
C3863      C3867   1.505       .  S
C3864      H3868   1.084       .  S
C3865      H3875   1.111       .  S
C3865      H3876   1.110       .  S
C3865      H3877   1.110       .  S
C3867      H3878   1.110       .  S
C3867      H3879   1.110       .  S
C3867      H3880   1.111       .  S
C3881      C3882   1.398       .  A
C3882      C3887   1.473       .  S
C3882      C3883   1.410       .  A
C3883      C3884   1.396       .  A
C3883      C3888   1.510       .  S
C3884      C3885   1.404       .  A
C3884      H3889   1.084       .  S
C3886      C3890   1.508       .  S
C3887      C3892   1.410       .  A
C3887      C3896   1.400       .  A
C3888      H3904   1.110       .  S
C3888      H3905   1.110       .  S
C3888      H3906   1.111       .  S
C3890      H3901   1.110       .  S
C3890      H3902   1.111       .  S
C3890      H3903   1.109       .  S
C3892      C3893   1.400       .  A
C3892      C3897   1.507       .  S
C3893      C3894   1.402       .  A
C3893      H3898   1.085       .  S
C3894      C3895   1.415       .  A
C3895      C3896   1.399       .  A
C3895      C3899   1.509       .  S
C3896      H3900   1.085       .  S
C3897      H3907   1.110       .  S
C3897      H3908   1.110       .  S
C3897      H3909   1.110       .  S
C3899      H3910   1.110       .  S
C3899      H3911   1.106       .  S
C3899      H3912   1.111       .  S
C3913      C3914   1.398       .  A
C3913      C3918   1.402       .  A
C3913      H3923   1.084       .  S
C3914      C3919   1.475       .  S
C3914      C3915   1.408       .  A
C3915      C3916   1.401       .  A
C3915      C3920   1.506       .  S
C3916      C3917   1.408       .  A
C3916      H3921   1.084       .  S
C3917      C3918   1.420       .  A
C3918      C3922   1.507       .  S
C3919      C3924   1.406       .  A
C3919      C3928   1.399       .  A
C3920      H3936   1.110       .  S
C3920      H3937   1.110       .  S
C3920      H3938   1.111       .  S
C3922      H3933   1.111       .  S
C3922      H3934   1.110       .  S
C3922      H3935   1.110       .  S
C3924      C3925   1.396       .  A
C3924      C3929   1.509       .  S
C3925      C3926   1.410       .  A
C3925      H3930   1.083       .  S
C3926      C3927   1.425       .  A
C3927      C3928   1.407       .  A
C3927      C5299   1.508   1_545  S
C3928      H3932   1.084       .  S
C3929      H3939   1.111       .  S
C3929      H3940   1.110       .  S
C3929      H3941   1.110       .  S
C3931      C5295   1.508       .  S
C3931      H3942   1.110       .  S
C3931      H3943   1.110       .  S
C3931      H3944   1.111       .  S
C3945      C3946   1.403       .  A
C3945      C3950   1.407       .  A
C3945      H3955   1.084       .  S
C3946      C3951   1.477       .  S
C3946      C3947   1.408       .  A
C3947      C3948   1.398       .  A
C3947      C3952   1.508       .  S
C3948      C3949   1.405       .  A
C3948      H3953   1.084       .  S
C3949      C3950   1.415       .  A
C3950      C3954   1.506   1_545  S
C3951      C3956   1.409       .  A
C3951      C3960   1.401       .  A
C3952      H3968   1.110       .  S
C3952      H3969   1.110       .  S
C3952      H3970   1.111       .  S
C3954      H3965   1.111       .  S
C3954      H3966   1.109       .  S
C3954      H3967   1.110       .  S
C3956      C3957   1.402       .  A
C3956      C3961   1.506       .  S
C3957      C3958   1.405       .  A
C3957      H3962   1.084       .  S
C3958      C3959   1.414       .  A
C3959      C3960   1.403       .  A
C3960      H3964   1.084       .  S
C3961      H3971   1.111       .  S
C3961      H3972   1.110       .  S
C3961      H3973   1.110       .  S
C3963      H3974   1.109       .  S
C3963      H3975   1.109       .  S
C3963      H3976   1.111       .  S
C3977      C3982   1.401       .  A
C3977      H3987   1.085       .  S
C3978      C3983   1.471       .  S
C3978      C3979   1.407       .  A
C3979      C3980   1.401       .  A
C3979      C3984   1.506       .  S
C3980      C3981   1.407       .  A
C3980      H3985   1.084       .  S
C3982      C3986   1.507   1_455  S
C3983      C3992   1.401       .  A
C3984      H4000   1.110       .  S
C3984      H4001   1.109       .  S
C3984      H4002   1.111       .  S
C3986      H3997   1.110       .  S
C3986      H3998   1.111       .  S
C3986      H3999   1.107       .  S
C3988      C3989   1.400       .  A
C3988      C3993   1.509       .  S
C3989      H3994   1.085       .  S
C3990      C3991   1.414       .  A
C3991      C3992   1.405       .  A
C3991      C3995   1.506       .  S
C3992      H3996   1.084       .  S
C3993      H4003   1.111       .  S
C3993      H4004   1.110       .  S
C3993      H4005   1.108       .  S
C3995      H4006   1.111       .  S
C3995      H4007   1.110       .  S
C3995      H4008   1.111       .  S
C4009      C4010   1.400       .  A
C4009      C4014   1.396       .  A
C4009      H4019   1.085       .  S
C4010      C4015   1.469       .  S
C4010      C4011   1.408       .  A
C4011      C4012   1.401       .  A
C4011      C4016   1.505       .  S
C4012      C4013   1.401       .  A
C4012      H4017   1.084       .  S
C4013      C4014   1.410       .  A
C4014      C4018   1.508       .  S
C4015      C4020   1.410       .  A
C4015      C4024   1.396       .  A
C4016      H4032   1.110       .  S
C4016      H4033   1.110       .  S
C4016      H4034   1.111       .  S
C4018      H4029   1.110       .  S
C4018      H4030   1.110       .  S
C4018      H4031   1.109       .  S
C4020      C4021   1.398       .  A
C4020      C4025   1.508       .  S
C4021      C4022   1.401       .  A
C4021      H4026   1.085       .  S
C4022      C4023   1.420       .  A
C4023      C4024   1.400       .  A
C4023      C4027   1.509       .  S
C4024      H4028   1.085       .  S
C4025      H4035   1.111       .  S
C4025      H4036   1.110       .  S
C4025      H4037   1.110       .  S
C4027      H4038   1.111       .  S
C4027      H4039   1.104       .  S
C4027      H4040   1.111       .  S
C4041      C4042   1.395       .  A
C4041      C4046   1.399       .  A
C4041      H4051   1.084       .  S
C4042      C4047   1.470       .  S
C4042      C4043   1.409       .  A
C4043      C4044   1.400       .  A
C4043      C4048   1.507       .  S
C4044      C4045   1.404       .  A
C4044      H4049   1.084       .  S
C4045      C4046   1.421       .  A
C4046      C4050   1.509       .  S
C4047      C4052   1.408       .  A
C4047      C4056   1.397       .  A
C4048      H4064   1.110       .  S
C4048      H4065   1.110       .  S
C4048      H4066   1.111       .  S
C4050      H4061   1.108       .  S
C4050      H4062   1.111       .  S
C4050      H4063   1.110       .  S
C4052      C4053   1.398       .  A
C4052      C4057   1.507       .  S
C4053      C4054   1.406       .  A
C4053      H4058   1.084       .  S
C4054      C4055   1.420       .  A
C4055      C4056   1.401       .  A
C4055      C4059   1.509       .  S
C4056      H4060   1.084       .  S
C4057      H4067   1.111       .  S
C4057      H4068   1.110       .  S
C4057      H4069   1.110       .  S
C4059      H4070   1.111       .  S
C4059      H4071   1.110       .  S
C4059      H4072   1.108       .  S
C4073      C4074   1.401       .  A
C4073      C4078   1.403       .  A
C4073      H4083   1.084       .  S
C4074      C4079   1.477       .  S
C4074      C5443   1.412       .  A
C4075      C5442   1.409       .  A
C4075      C4076   1.402       .  A
C4075      C4080   1.506       .  S
C4076      C4077   1.404       .  A
C4076      H4081   1.084       .  S
C4077      C5446   1.418       .  A
C4078      C5445   1.413       .  A
C4078      C4082   1.507       .  S
C4079      C5452   1.411       .  A
C4079      C4088   1.402       .  A
C4080      H4096   1.110       .  S
C4080      H4097   1.110       .  S
C4080      H4098   1.111       .  S
C4082      H4093   1.111       .  S
C4082      H4094   1.111       .  S
C4082      H4095   1.108       .  S
C4084      C5447   1.409       .  A
C4084      C5453   1.405       .  A
C4085      C5452   1.406       .  A
C4085      C4086   1.403       .  A
C4086      C4087   1.409   1_565  A
C4087      C4088   1.397   1_545  A
C4087      C4091   1.508       .  S
C4088      H4092   1.084   1_565  S
C4089      H4099   1.111       .  S
C4089      H4101   1.108       .  S
C4091      H4102   1.111       .  S
C4091      H4103   1.111       .  S
C4091      H4104   1.109       .  S
C4105      N4110   1.359       .  A
C4105      C5445   1.472       .  S
N4106      C4107   1.350       .  A
C4107      C5413   1.456       .  S
N4108      C4109   1.351       .  A
C4109      N4110   1.358       .  A
C4109      C4184   1.458       .  S
C4111      N4112   1.361       .  A
C4111      N4116   1.356       .  A
C4111      C5390   1.469       .  S
N4112      C4113   1.359       .  A
C4113      N4114   1.352       .  A
C4113      C4165   1.458       .  S
N4114      C4115   1.352       .  A
C4115      N4116   1.354       .  A
C4115      C5422   1.465       .  S
C4117      N4118   1.356       .  A
C4117      C5349   1.473       .  S
N4118      C4119   1.356       .  A
C4119      N4120   1.356       .  A
C4119      C4169   1.455       .  S
C4121      N4122   1.357       .  A
C4121      C5326   1.469       .  S
C4123      N4128   1.353       .  A
C4123      C5294   1.484       .  S
N4124      C4125   1.357       .  A
C4125      C4164   1.457       .  S
N4126      C4127   1.359       .  A
C4127      N4128   1.353       .  A
C4127      C5317   1.479       .  S
C4129      N4130   1.353       .  A
N4130      C4131   1.359       .  A
C4131      N4132   1.368       .  A
C4131      C4177   1.480       .  S
N4132      C4133   1.369       .  A
C4135      N4136   1.351       .  A
C4135      N4140   1.351       .  A
C4135      C5198   1.484       .  S
N4136      C4137   1.358       .  A
C4137      N4138   1.368       .  A
C4137      C4163   1.476       .  S
N4138      C4139   1.368       .  A
C4139      N4140   1.355       .  A
C4139      C5230   1.485       .  S
Zr4141     O4142   2.440       .  S
Zr4141     O4143   2.447       .  S
Zr4141     O4144   2.428       .  S
Zr4141     O4147   2.432       .  S
Zr4141     O4149   2.382       .  S
Zr4141     O4150   2.384       .  S
Zr4141     O4151   2.412       .  S
Zr4141     O4152   2.410       .  S
O4142      H4198   0.990       .  S
O4142      H4206   0.990       .  S
O4143      C4163   1.285       .  A
O4144      C4165   1.281       .  A
O4145     Zr4155   2.421       .  S
O4145      C4164   1.282       .  A
O4146     Zr4154   2.426       .  S
O4146      C4165   1.284       .  A
O4147      C4164   1.283       .  A
O4148     Zr4156   2.424       .  S
O4148      C4163   1.284       .  A
O4149     Zr4154   2.386       .  S
O4149     Zr4156   2.373       .  S
O4150     Zr4155   2.387       .  S
O4150     Zr4156   2.368       .  S
O4150      H4185   0.966       .  S
O4151     Zr4154   2.400       .  S
O4151     Zr4171   2.394       .  S
O4151      H4188   0.965       .  S
O4152     Zr4155   2.386       .  S
O4152     Zr4171   2.399       .  S
Zr4153     O4178   2.440       .  S
Zr4153     O4172   2.449       .  S
Zr4153     O4180   2.412       .  S
Zr4153     O4168   2.424       .  S
Zr4153     O4159   2.404       .  S
Zr4153     O4160   2.404       .  S
Zr4153     O4161   2.380       .  S
Zr4153     O4162   2.381       .  S
Zr4154     O4173   2.436       .  S
Zr4154     O4166   2.435       .  S
Zr4154     O4167   2.432       .  S
Zr4154     O4160   2.392       .  S
Zr4154     O4161   2.392       .  S
Zr4155     O4157   2.434       .  S
Zr4155     O4179   2.435       .  S
Zr4155     O4181   2.423       .  S
Zr4155     O4159   2.383       .  S
Zr4155     O4162   2.387       .  S
Zr4156     O4182   2.436       .  S
Zr4156     O4183   2.435       .  S
Zr4156     O4158   2.436       .  S
Zr4156     O4159   2.395       .  S
Zr4156     O4160   2.391       .  S
O4157      H4194   0.990       .  S
O4158      H4189   0.990       .  S
O4158      H4203   0.990       .  S
O4160      H4186   0.965       .  S
O4161     Zr4171   2.378       .  S
O4162     Zr4171   2.370       .  S
O4162      H4187   0.965       .  S
O4166      H4202   0.990       .  S
O4167      C4169   1.284       .  A
O4168      C4169   1.281       .  A
O4170     Zr4171   2.440       .  S
O4170      H4199   0.990       .  S
Zr4171     O4174   2.439       .  S
Zr4171     O4175   2.443       .  S
Zr4171     O4176   2.427       .  S
O4172      C4177   1.285       .  A
O4173      H4190   0.990       .  S
O4173      H4205   0.990       .  S
O4174      H4191   0.989       .  S
O4175      H4195   0.990       .  S
O4175      H4204   0.989       .  S
O4176      C4177   1.284       .  A
O4178      H4197   0.991       .  S
O4178      H4201   0.990       .  S
O4179      H4193   0.990       .  S
O4179      H4200   0.990       .  S
O4180      C4184   1.280       .  A
O4181      C4184   1.285       .  A
O4182      H4192   0.990       .  S
O4183      H4196   0.990       .  S
Zr4207     O4208   2.438       .  S
Zr4207     O4209   2.413       .  S
Zr4207     O4210   2.426       .  S
Zr4207     O4213   2.405       .  S
Zr4207     O4215   2.373       .  S
Zr4207     O4216   2.383       .  S
Zr4207     O4217   2.397       .  S
Zr4207     O4218   2.396       .  S
O4208      H4264   0.990       .  S
O4208      H4272   0.990       .  S
O4209      C4229   1.280       .  A
O4210      C4231   1.282       .  A
O4211     Zr4221   2.447       .  S
O4211      C4230   1.286       .  A
O4212     Zr4220   2.434       .  S
O4212      C4231   1.285       .  A
O4213      C4230   1.280       .  A
O4214     Zr4222   2.426       .  S
O4214      C4229   1.282       .  A
O4215     Zr4220   2.385       .  S
O4215     Zr4222   2.369       .  S
O4216     Zr4221   2.391       .  S
O4216     Zr4222   2.376       .  S
O4216      H4251   0.965       .  S
O4217     Zr4220   2.397       .  S
O4217     Zr4237   2.405       .  S
O4217      H4254   0.966       .  S
O4218     Zr4221   2.395       .  S
O4218     Zr4237   2.395       .  S
Zr4219     O4244   2.440       .  S
Zr4219     O4238   2.412       .  S
Zr4219     O4246   2.404       .  S
Zr4219     O4234   2.410       .  S
Zr4219     O4225   2.394       .  S
Zr4219     O4226   2.398       .  S
Zr4219     O4227   2.374       .  S
Zr4219     O4228   2.377       .  S
Zr4220     O4239   2.435       .  S
Zr4220     O4232   2.434       .  S
Zr4220     O4233   2.435       .  S
Zr4220     O4226   2.401       .  S
Zr4220     O4227   2.387       .  S
Zr4221     O4223   2.437       .  S
Zr4221     O4245   2.436       .  S
Zr4221     O4247   2.445       .  S
Zr4221     O4225   2.395       .  S
Zr4221     O4228   2.389       .  S
Zr4222     O4248   2.435       .  S
Zr4222     O4249   2.435       .  S
Zr4222     O4224   2.435       .  S
Zr4222     O4225   2.391       .  S
Zr4222     O4226   2.395       .  S
O4223      H4260   0.990       .  S
O4224      H4255   0.990       .  S
O4224      H4269   0.990       .  S
O4226      H4252   0.966       .  S
O4227     Zr4237   2.374       .  S
O4228     Zr4237   2.378       .  S
O4228      H4253   0.966       .  S
C4229      C5134   1.466       .  S
C4230      C5157   1.466       .  S
C4231      C5093   1.494       .  S
O4232      H4268   0.990       .  S
O4233      C4235   1.284       .  A
O4234      C4235   1.280       .  A
C4235      C5262   1.466       .  S
O4236     Zr4237   2.435       .  S
O4236      H4265   0.990       .  S
Zr4237     O4240   2.435       .  S
Zr4237     O4241   2.438       .  S
Zr4237     O4242   2.425       .  S
O4238      C4243   1.281       .  A
O4239      H4256   0.990       .  S
O4239      H4271   0.990       .  S
O4240      H4257   0.990       .  S
O4241      H4261   0.990       .  S
O4241      H4270   0.990       .  S
O4242      C4243   1.281       .  A
C4243      C5285   1.483       .  S
O4244      H4263   0.990       .  S
O4244      H4267   0.990       .  S
O4245      H4259   0.990       .  S
O4245      H4266   0.990       .  S
O4246      C4250   1.280       .  A
O4247      C4250   1.285       .  A
O4248      H4258   0.990       .  S
O4249      H4262   0.990       .  S
C4250      C5381   1.465       .  S
C4273      N4274   1.353       .  A
C4273      N4278   1.352       .  A
C4273      C5070   1.486       .  S
N4274      C4275   1.360       .  A
C4275      N4276   1.368       .  A
C4275      C4333   1.477       .  S
N4276      C4277   1.368       .  A
C4277      N4278   1.354       .  A
C4277      C5029   1.497       .  S
C4279      N4280   1.361       .  A
C4279      N4284   1.354       .  A
C4279      C5166   1.487       .  S
N4280      C4281   1.363       .  A
C4281      N4282   1.366       .  A
C4281      C4352   1.480       .  S
N4282      C4283   1.362       .  A
C4283      N4284   1.353       .  A
C4283      C5038   1.477       .  S
C4285      N4286   1.354       .  A
C4285      N4290   1.354       .  A
C4285      C5006   1.465       .  S
N4286      C4287   1.355       .  A
C4287      N4288   1.358       .  A
C4287      C4974   1.474       .  S
N4288      C4289   1.359       .  A
C4289      N4290   1.359       .  A
C4289      C4345   1.463       .  S
C4291      N4292   1.350       .  A
C4291      N4296   1.354       .  A
C4291      C5125   1.463       .  S
N4292      C4293   1.351       .  A
C4293      N4294   1.362       .  A
C4293      C4965   1.486       .  S
N4294      C4295   1.362       .  A
C4295      N4296   1.362       .  A
C4295      C4331   1.469       .  S
C4297      N4298   1.358       .  A
C4297      N4302   1.355       .  A
C4297      C4942   1.467       .  S
N4298      C4299   1.359       .  A
C4299      N4300   1.357       .  A
C4299      C4901   1.477       .  S
N4300      C4301   1.353       .  A
C4301      N4302   1.353       .  A
C4301      C4332   1.451       .  S
C4303      N4304   1.359       .  A
C4303      N4308   1.355       .  A
N4304      C4305   1.357       .  A
C4305      N4306   1.357       .  A
C4305      C4910   1.482       .  S
N4306      C4307   1.354       .  A
C4307      N4308   1.353       .  A
Zr4309     O4310   2.438       .  S
Zr4309     O4311   2.439       .  S
Zr4309     O4312   2.456       .  S
Zr4309     O4315   2.424       .  S
Zr4309     O4318   2.387       .  S
O4310      H4366   0.990       .  S
O4310      H4374   0.989       .  S
O4311      C4331   1.285       .  A
O4313     Zr4323   2.418   1_565  S
O4313      C4332   1.282       .  A
O4314     Zr4322   2.446       .  S
O4314      C4333   1.285       .  A
O4315      C4332   1.281       .  A
O4316     Zr4324   2.412   1_565  S
O4316      C4331   1.280       .  A
O4317     Zr4322   2.389       .  S
O4318     Zr4323   2.396   1_565  S
O4318     Zr4324   2.374   1_565  S
O4318      H4353   0.966       .  S
O4319     Zr4322   2.401       .  S
O4319     Zr4339   2.387       .  S
O4319      H4356   0.966       .  S
O4320     Zr4339   2.386       .  S
Zr4321     O4346   2.442       .  S
Zr4321     O4340   2.433       .  S
Zr4321     O4348   2.449       .  S
Zr4321     O4336   2.432       .  S
Zr4321     O4330   2.381       .  S
Zr4322     O4341   2.437       .  S
Zr4322     O4334   2.436       .  S
Zr4322     O4335   2.427       .  S
Zr4322     O4328   2.399       .  S
Zr4322     O4329   2.393       .  S
Zr4323     O4347   2.438   1_645  S
Zr4324     O4350   2.435   1_545  S
O4325      H4362   0.990       .  S
O4328      H4354   0.966       .  S
O4329     Zr4339   2.369       .  S
O4330      H4355   0.965       .  S
O4334      H4370   0.990       .  S
O4335      C4337   1.283       .  A
O4338     Zr4339   2.439       .  S
O4338      H4367   0.990       .  S
Zr4339     O4342   2.437       .  S
O4340      C4345   1.283       .  A
O4341      H4358   0.990       .  S
O4341      H4373   0.990       .  S
O4343      H4363   0.990       .  S
O4343      H4372   0.990       .  S
O4344      C4345   1.280       .  A
O4346      H4365   0.990       .  S
O4346      H4369   0.990       .  S
O4347      H4368   0.990       .  S
O4348      C4352   1.287       .  A
O4349      C4352   1.285       .  A
O4350      H4360   0.990   1_655  S
O4351      H4364   0.990       .  S
C4375      N4376   1.357       .  A
C4375      N4380   1.362       .  A
C4375      C4869   1.469       .  S
N4376      C4377   1.351       .  A
C4377      N4378   1.349       .  A
C4377      C4846   1.467       .  S
N4378      C4379   1.353       .  A
C4379      N4380   1.362       .  A
C4379      C4434   1.460       .  S
C4381      N4382   1.362       .  A
C4381      N4386   1.356       .  A
C4381      C4805   1.487       .  S
N4382      C4383   1.361       .  A
C4383      N4384   1.356       .  A
C4383      C4837   1.495       .  S
N4384      C4385   1.356       .  A
C4385      N4386   1.354       .  A
C4385      C4439   1.462       .  S
C4387      N4388   1.357       .  A
C4387      N4392   1.354       .  A
C4387      C4782   1.469       .  S
N4388      C4389   1.358       .  A
C4389      N4390   1.359       .  A
C4389      C4435   1.456       .  S
N4390      C4391   1.358       .  A
C4391      N4392   1.353       .  A
C4393      N4394   1.356       .  A
C4393      N4398   1.354       .  A
C4393      C4709   1.475       .  S
N4394      C4395   1.356       .  A
C4395      N4396   1.362       .  A
C4395      C4741   1.484       .  S
N4396      C4397   1.359       .  A
C4397      N4398   1.356       .  A
C4397      C4454   1.459       .  S
C4399      N4400   1.353       .  A
C4399      N4404   1.352       .  A
C4399      C4677   1.484       .  S
N4400      C4401   1.356       .  A
C4401      N4402   1.369       .  A
C4401      C4654   1.489       .  S
N4402      C4403   1.369       .  A
C4403      N4404   1.359       .  A
C4403      C4433   1.479       .  S
C4405      N4406   1.352       .  A
C4405      N4410   1.351       .  A
C4405      C4613   1.475       .  S
N4406      C4407   1.354       .  A
C4407      N4408   1.368       .  A
C4407      C4645   1.488   1_655  S
N4408      C4409   1.367       .  A
C4409      N4410   1.359       .  A
C4409      C4447   1.474       .  S
Zr4411     O4412   2.441       .  S
Zr4411     O4413   2.455       .  S
Zr4411     O4414   2.444       .  S
Zr4411     O4417   2.441       .  S
Zr4411     O4419   2.384       .  S
Zr4411     O4420   2.391       .  S
Zr4411     O4421   2.416       .  S
Zr4411     O4422   2.395       .  S
O4412      H4468   0.990       .  S
O4412      H4476   0.990       .  S
O4413      C4433   1.285       .  A
O4414      C4435   1.283       .  A
O4415     Zr4425   2.415       .  S
O4415      C4434   1.282       .  A
O4416     Zr4424   2.411       .  S
O4416      C4435   1.279       .  A
O4417      C4434   1.284       .  A
O4418     Zr4426   2.426       .  S
O4418      C4433   1.283       .  A
O4419     Zr4424   2.395       .  S
O4419     Zr4426   2.374       .  S
O4420     Zr4425   2.382       .  S
O4420     Zr4426   2.379       .  S
O4420      H4455   0.966       .  S
O4421     Zr4424   2.399       .  S
O4421     Zr4441   2.406       .  S
O4421      H4458   0.966       .  S
O4422     Zr4425   2.383       .  S
O4422     Zr4441   2.381       .  S
Zr4423     O4448   2.439       .  S
Zr4423     O4442   2.442       .  S
Zr4423     O4450   2.443       .  S
Zr4423     O4438   2.426       .  S
Zr4423     O4429   2.407       .  S
Zr4423     O4430   2.411       .  S
Zr4423     O4431   2.380       .  S
Zr4423     O4432   2.381       .  S
Zr4424     O4443   2.438       .  S
Zr4424     O4436   2.435       .  S
Zr4424     O4437   2.426       .  S
Zr4424     O4430   2.392       .  S
Zr4424     O4431   2.383       .  S
Zr4425     O4427   2.436       .  S
Zr4425     O4449   2.437       .  S
Zr4425     O4451   2.414       .  S
Zr4425     O4429   2.387       .  S
Zr4425     O4432   2.387       .  S
Zr4426     O4452   2.438       .  S
Zr4426     O4453   2.434       .  S
Zr4426     O4428   2.437       .  S
Zr4426     O4429   2.398       .  S
Zr4426     O4430   2.402       .  S
O4427      H4464   0.990       .  S
O4428      H4459   0.991       .  S
O4428      H4473   0.990       .  S
O4430      H4456   0.966       .  S
O4431     Zr4441   2.362       .  S
O4432     Zr4441   2.379       .  S
O4432      H4457   0.966       .  S
O4436      H4472   0.990       .  S
O4437      C4439   1.283       .  A
O4438      C4439   1.283       .  A
O4440     Zr4441   2.438       .  S
O4440      H4469   0.991       .  S
Zr4441     O4444   2.437       .  S
Zr4441     O4445   2.440       .  S
Zr4441     O4446   2.424       .  S
O4442      C4447   1.284       .  A
O4443      H4460   0.990       .  S
O4443      H4475   0.990       .  S
O4444      H4461   0.990       .  S
O4445      H4465   0.990       .  S
O4445      H4474   0.989       .  S
O4446      C4447   1.283       .  A
O4448      H4467   0.991       .  S
O4448      H4471   0.990       .  S
O4449      H4463   0.990       .  S
O4449      H4470   0.990       .  S
O4450      C4454   1.285       .  A
O4451      C4454   1.280       .  A
O4452      H4462   0.990       .  S
O4453      H4466   0.990       .  S
Zr4477     O4479   2.413       .  S
Zr4477     O4485   2.376       .  S
Zr4477     O4486   2.378       .  S
Zr4477     O4487   2.396       .  S
O4478      H4534   0.990       .  S
O4478      H4542   0.990       .  S
O4479      C4499   1.282       .  A
O4480      C4501   1.282       .  A
O4481     Zr4491   2.451       .  S
O4481      C4500   1.287       .  A
O4482     Zr4490   2.434       .  S
O4482      C4501   1.283       .  A
O4483      C4500   1.279       .  A
O4484     Zr4492   2.435       .  S
O4484      C4499   1.283       .  A
O4485     Zr4492   2.375       .  S
O4486     Zr4492   2.375       .  S
O4486      H4521   0.966       .  S
O4488     Zr4491   2.395       .  S
O4488     Zr4507   2.396       .  S
Zr4489     O4514   2.439       .  S
Zr4489     O4508   2.422       .  S
Zr4489     O4516   2.408       .  S
Zr4489     O4495   2.393   1_554  S
Zr4490     O4509   2.436       .  S
Zr4490     O4502   2.434       .  S
Zr4490     O4503   2.416   1_556  S
Zr4490     O4496   2.403   1_565  S
Zr4490     O4497   2.394   1_556  S
Zr4491     O4493   2.436       .  S
Zr4491     O4517   2.444   1_556  S
Zr4491     O4498   2.394   1_556  S
Zr4492     O4518   2.435       .  S
Zr4492     O4519   2.436       .  S
Zr4492     O4495   2.396       .  S
O4493      H4530   0.990   1_556  S
O4494      H4525   0.990       .  S
O4494      H4539   0.990       .  S
O4496      H4522   0.960   1_556  S
O4498     Zr4507   2.379   1_554  S
O4498      H4523   0.965       .  S
C4499      C4814   1.484       .  S
C4500      C4686   1.470       .  S
C4501      C4718   1.474       .  S
O4502      H4538   0.990       .  S
O4503      C4505   1.280       .  A
O4504      C4505   1.282       .  A
C4505      C5189   1.461       .  S
O4506     Zr4507   2.434       .  S
O4506      H4535   0.990       .  S
Zr4507     O4511   2.437   1_556  S
Zr4507     O4512   2.417   1_556  S
O4509      H4526   0.990       .  S
O4509      H4541   0.989       .  S
O4510      H4527   0.990       .  S
O4511      H4531   0.990       .  S
O4511      H4540   0.990   1_554  S
O4512      C4513   1.279       .  A
C4513      C5454   1.463       .  S
O4514      H4533   0.990       .  S
O4514      H4537   0.990       .  S
O4515      H4536   0.989       .  S
O4516      C4520   1.282   1_655  A
O4518      H4528   0.990       .  S
O4519      H4532   0.990   1_556  S
Zr4543     O4544   2.441       .  S
Zr4543     O4545   2.434       .  S
Zr4543     O4546   2.418       .  S
Zr4543     O4549   2.409       .  S
Zr4543     O4551   2.376       .  S
Zr4543     O4552   2.378       .  S
Zr4543     O4553   2.406       .  S
Zr4543     O4554   2.399       .  S
O4544      H4600   0.991       .  S
O4544      H4608   0.990       .  S
O4545      C4565   1.285       .  A
O4546      C4567   1.280       .  A
O4547     Zr4557   2.436       .  S
O4547      C4566   1.285       .  A
O4548     Zr4556   2.444       .  S
O4548      C4567   1.285       .  A
O4549      C4566   1.281       .  A
O4550     Zr4558   2.417       .  S
O4550      C4565   1.279       .  A
O4551     Zr4556   2.398       .  S
O4551     Zr4558   2.381       .  S
O4552     Zr4557   2.385       .  S
O4552     Zr4558   2.375       .  S
O4552      H4587   0.967       .  S
O4553     Zr4556   2.402       .  S
O4553     Zr4573   2.398       .  S
O4553      H4590   0.966       .  S
O4554     Zr4557   2.394       .  S
O4554     Zr4573   2.396       .  S
Zr4555     O4580   2.442       .  S
Zr4555     O4574   2.408       .  S
Zr4555     O4582   2.415       .  S
Zr4555     O4570   2.411       .  S
Zr4555     O4561   2.393       .  S
Zr4555     O4562   2.393       .  S
Zr4555     O4563   2.378       .  S
Zr4555     O4564   2.374       .  S
Zr4556     O4575   2.437       .  S
Zr4556     O4568   2.435       .  S
Zr4556     O4569   2.447       .  S
Zr4556     O4562   2.398       .  S
Zr4556     O4563   2.389       .  S
Zr4557     O4559   2.435       .  S
Zr4557     O4581   2.435       .  S
Zr4557     O4583   2.437       .  S
Zr4557     O4561   2.396       .  S
Zr4557     O4564   2.383       .  S
Zr4558     O4584   2.435       .  S
Zr4558     O4585   2.437       .  S
Zr4558     O4560   2.436       .  S
Zr4558     O4561   2.397       .  S
Zr4558     O4562   2.391       .  S
O4559      H4596   0.990       .  S
O4560      H4591   0.990   1_565  S
O4560      H4605   0.990       .  S
O4562      H4588   0.965       .  S
O4563     Zr4573   2.375       .  S
O4564     Zr4573   2.369       .  S
O4564      H4589   0.966       .  S
C4565      C4773   1.496       .  S
C4566      C4622   1.472       .  S
C4567      C4878   1.477       .  S
O4568      H4604   0.990       .  S
O4569      C4571   1.286       .  A
O4570      C4571   1.281       .  A
C4571      C5061   1.468       .  S
O4572     Zr4573   2.439       .  S
O4572      H4601   0.990       .  S
Zr4573     O4576   2.436       .  S
Zr4573     O4577   2.440       .  S
Zr4573     O4578   2.435       .  S
O4574      C4579   1.279       .  A
O4575      H4592   0.990       .  S
O4575      H4607   0.990       .  S
O4576      H4593   0.990       .  S
O4577      H4597   0.990       .  S
O4577      H4606   0.990       .  S
O4578      C4579   1.285       .  A
C4579      C4997   1.482       .  S
O4580      H4599   0.990       .  S
O4580      H4603   0.990       .  S
O4581      H4595   0.990       .  S
O4581      H4602   0.990       .  S
O4582      C4586   1.283       .  A
O4583      C4586   1.285       .  A
O4584      H4594   0.990       .  S
O4585      H4598   0.990       .  S
C4586      C4933   1.474       .  S
C4609      C4610   1.399       .  A
C4609      C4614   1.397       .  A
C4610      C4615   1.475       .  S
C4610      C4611   1.408   1_455  A
C4611      C4612   1.407       .  A
C4611      C4616   1.505       .  S
C4612      C4613   1.408       .  A
C4612      H4617   1.084       .  S
C4613      C4614   1.415   1_655  A
C4614      C4618   1.509       .  S
C4615      C4624   1.401       .  A
C4616      H4632   1.110       .  S
C4616      H4633   1.108   1_655  S
C4616      H4634   1.111       .  S
C4618      H4629   1.109       .  S
C4618      H4630   1.111       .  S
C4618      H4631   1.111   1_455  S
C4620      C4621   1.400       .  A
C4620      C4625   1.508       .  S
C4621      C4622   1.405       .  A
C4621      H4626   1.085       .  S
C4622      C4623   1.417       .  A
C4624      H4628   1.085   1_455  S
C4625      H4635   1.111       .  S
C4625      H4636   1.110       .  S
C4625      H4637   1.110       .  S
C4627      H4638   1.110       .  S
C4627      H4640   1.111       .  S
C4641      C4642   1.399       .  A
C4641      C4646   1.404       .  A
C4641      H4651   1.084       .  S
C4642      C4647   1.487       .  S
C4643      C4644   1.409       .  A
C4643      C4648   1.506       .  S
C4644      C4645   1.405       .  A
C4644      H4649   1.084   1_455  S
C4646      C4650   1.510       .  S
C4647      C4652   1.414       .  A
C4647      C4656   1.397       .  A
C4648      H4665   1.109       .  S
C4648      H4666   1.111   1_455  S
C4650      H4661   1.108       .  S
C4650      H4662   1.111       .  S
C4652      C4653   1.411       .  A
C4652      C4657   1.506       .  S
C4653      C4654   1.405       .  A
C4653      H4658   1.084       .  S
C4654      C4655   1.422       .  A
C4655      C4656   1.403       .  A
C4655      C4659   1.510       .  S
C4656      H4660   1.084       .  S
C4657      H4667   1.111       .  S
C4657      H4668   1.110       .  S
C4657      H4669   1.109       .  S
C4659      H4670   1.111       .  S
C4659      H4671   1.110       .  S
C4659      H4672   1.108       .  S
C4673      C4674   1.398       .  A
C4673      C4678   1.406       .  A
C4673      H4683   1.084       .  S
C4674      C4679   1.478       .  S
C4674      C4675   1.411       .  A
C4675      C4676   1.400       .  A
C4675      C4680   1.509       .  S
C4676      C4677   1.405       .  A
C4676      H4681   1.084       .  S
C4677      C4678   1.421       .  A
C4678      C4682   1.508       .  S
C4679      C4684   1.408       .  A
C4679      C4688   1.403       .  A
C4680      H4696   1.110       .  S
C4680      H4697   1.110       .  S
C4680      H4698   1.111       .  S
C4682      H4693   1.110       .  S
C4682      H4694   1.111       .  S
C4682      H4695   1.110       .  S
C4684      C4685   1.400       .  A
C4684      C4689   1.506       .  S
C4685      C4686   1.404       .  A
C4685      H4690   1.084       .  S
C4686      C4687   1.411       .  A
C4687      C4688   1.404       .  A
C4688      H4692   1.084       .  S
C4689      H4699   1.111       .  S
C4689      H4700   1.110       .  S
C4689      H4701   1.110       .  S
C4691      H4702   1.111       .  S
C4691      H4703   1.110       .  S
C4691      H4704   1.110       .  S
C4705      C4706   1.401       .  A
C4705      C4710   1.406       .  A
C4705      H4715   1.084       .  S
C4706      C4711   1.478       .  S
C4706      C4707   1.413       .  A
C4707      C4708   1.397       .  A
C4707      C4712   1.509       .  S
C4708      C4709   1.401       .  A
C4708      H4713   1.084       .  S
C4709      C4710   1.417       .  A
C4710      C4714   1.507       .  S
C4711      C4716   1.409       .  A
C4711      C4720   1.402       .  A
C4712      H4728   1.109       .  S
C4712      H4729   1.110       .  S
C4714      H4725   1.111       .  S
C4714      H4726   1.111       .  S
C4714      H4727   1.109       .  S
C4716      C4717   1.399       .  A
C4716      C4721   1.505       .  S
C4717      C4718   1.404       .  A
C4717      H4722   1.085       .  S
C4718      C4719   1.413       .  A
C4719      C4720   1.404       .  A
C4719      C4723   1.506       .  S
C4720      H4724   1.084       .  S
C4721      H4731   1.108       .  S
C4721      H4732   1.110       .  S
C4721      H4733   1.110       .  S
C4723      H4734   1.110       .  S
C4723      H4735   1.110       .  S
C4723      H4736   1.111       .  S
C4737      C4738   1.401       .  A
C4737      H4747   1.084       .  S
C4738      C4743   1.483       .  S
C4738      C4739   1.411       .  A
C4739      C4744   1.508       .  S
C4740      C4741   1.405       .  A
C4740      H4745   1.084       .  S
C4741      C4742   1.419   1_655  A
C4742      C4746   1.508       .  S
C4743      C4748   1.412       .  A
C4743      C4752   1.399       .  A
C4744      H4760   1.109       .  S
C4744      H4761   1.110       .  S
C4744      H4762   1.111       .  S
C4746      H4757   1.111       .  S
C4746      H4758   1.110       .  S
C4746      H4759   1.109       .  S
C4748      C4749   1.405   1_565  A
C4749      C4750   1.405       .  A
C4749      H4754   1.084       .  S
C4750      C4751   1.419   1_545  A
C4751      C4752   1.402       .  A
C4751      C4755   1.508       .  S
C4752      H4756   1.084       .  S
C4753      H4763   1.111       .  S
C4753      H4764   1.109       .  S
C4753      H4765   1.110       .  S
C4755      H4768   1.109       .  S
C4769      C4770   1.397       .  A
C4769      C4774   1.406       .  A
C4770      C4775   1.478       .  S
C4770      C4771   1.408   1_545  A
C4771      C4772   1.401       .  A
C4771      C4776   1.508       .  S
C4772      C4773   1.410       .  A
C4772      H4777   1.083       .  S
C4773      C4774   1.427   1_565  A
C4774      C4778   1.509       .  S
C4775      C4780   1.410       .  A
C4776      H4792   1.110       .  S
C4776      H4793   1.110       .  S
C4776      H4794   1.111       .  S
C4778      H4789   1.111       .  S
C4778      H4791   1.110       .  S
C4780      C4781   1.405       .  A
C4780      C4785   1.506       .  S
C4781      H4786   1.084       .  S
C4782      C4783   1.414       .  A
C4783      C4784   1.399       .  A
C4783      C4787   1.508       .  S
C4784      H4788   1.085       .  S
C4785      H4795   1.111       .  S
C4785      H4796   1.110       .  S
C4785      H4797   1.110       .  S
C4787      H4798   1.110       .  S
C4787      H4799   1.108       .  S
C4787      H4800   1.110       .  S
C4801      C4802   1.399       .  A
C4801      C4806   1.406       .  A
C4801      H4811   1.084       .  S
C4802      C4807   1.476       .  S
C4802      C4803   1.408       .  A
C4803      C4804   1.399       .  A
C4803      C4808   1.509       .  S
C4804      C4805   1.407       .  A
C4804      H4809   1.083       .  S
C4805      C4806   1.422       .  A
C4806      C4810   1.509       .  S
C4807      C4812   1.406       .  A
C4807      C4816   1.401       .  A
C4808      H4824   1.110       .  S
C4808      H4825   1.109       .  S
C4808      H4826   1.111       .  S
C4810      H4822   1.109       .  S
C4810      H4823   1.110       .  S
C4812      C4813   1.399       .  A
C4812      C4817   1.506       .  S
C4813      C4814   1.407       .  A
C4813      H4818   1.084       .  S
C4814      C4815   1.419       .  A
C4815      C4816   1.406       .  A
C4815      C4819   1.507       .  S
C4816      H4820   1.084       .  S
C4817      H4829   1.109       .  S
C4819      H4830   1.110       .  S
C4819      H4831   1.110       .  S
C4819      H4832   1.111       .  S
C4833      C4838   1.404       .  A
C4833      H4843   1.084       .  S
C4834      C4839   1.468       .  S
C4834      C4835   1.406       .  A
C4835      C4840   1.509       .  S
C4836      C4837   1.410       .  A
C4837      C4838   1.426       .  A
C4838      C4842   1.509       .  S
C4839      C4844   1.408       .  A
C4839      C4848   1.399       .  A
C4840      H4856   1.110       .  S
C4840      H4857   1.109       .  S
C4840      H4858   1.111       .  S
C4842      H4853   1.110       .  S
C4842      H4854   1.111       .  S
C4842      H4855   1.110       .  S
C4844      C4845   1.398       .  A
C4844      C4849   1.508       .  S
C4845      C4846   1.403       .  A
C4845      H4850   1.084       .  S
C4846      C4847   1.414       .  A
C4847      C4848   1.400       .  A
C4847      C4851   1.508       .  S
C4849      H4859   1.111       .  S
C4849      H4860   1.110       .  S
C4849      H4861   1.109       .  S
C4851      H4863   1.110       .  S
C4851      H4864   1.111       .  S
C4865      C4866   1.404       .  A
C4865      C4870   1.404       .  A
C4865      H4875   1.084       .  S
C4866      C4871   1.478       .  S
C4866      C4867   1.409       .  A
C4867      C4868   1.401       .  A
C4867      C4872   1.506       .  S
C4868      C4869   1.404       .  A
C4868      H4873   1.085       .  S
C4869      C4870   1.410       .  A
C4870      C4874   1.506       .  S
C4871      C4876   1.409       .  A
C4871      C4880   1.400       .  A
C4872      H4888   1.110       .  S
C4872      H4889   1.110       .  S
C4872      H4890   1.111       .  S
C4874      H4885   1.111       .  S
C4874      H4886   1.111       .  S
C4874      H4887   1.110       .  S
C4876      C4877   1.408       .  A
C4876      C4881   1.505       .  S
C4877      C4878   1.407       .  A
C4877      H4882   1.084       .  S
C4878      C4879   1.416       .  A
C4879      C4880   1.399       .  A
C4879      C4883   1.510       .  S
C4880      H4884   1.085       .  S
C4881      H4891   1.111       .  S
C4881      H4892   1.110       .  S
C4881      H4893   1.110       .  S
C4883      H4894   1.109       .  S
C4883      H4895   1.110       .  S
C4883      H4896   1.111       .  S
C4897      C4898   1.401       .  A
C4897      C4902   1.403       .  A
C4897      H4907   1.084       .  S
C4898      C4903   1.473       .  S
C4898      C4899   1.407       .  A
C4899      C4900   1.398       .  A
C4899      C4904   1.508       .  S
C4900      C4901   1.407       .  A
C4900      H4905   1.084       .  S
C4901      C4902   1.416       .  A
C4902      C4906   1.507       .  S
C4903      C4912   1.399       .  A
C4904      H4920   1.110       .  S
C4904      H4922   1.111       .  S
C4906      H4917   1.110       .  S
C4906      H4918   1.111       .  S
C4906      H4919   1.107       .  S
C4908      C4909   1.402       .  A
C4908      C4913   1.507       .  S
C4909      C4910   1.407       .  A
C4909      H4914   1.084       .  S
C4911      C4912   1.400       .  A
C4911      C4915   1.509       .  S
C4912      H4916   1.085       .  S
C4913      H4923   1.111       .  S
C4913      H4924   1.110       .  S
C4913      H4925   1.110       .  S
C4915      H4926   1.110       .  S
C4915      H4927   1.107       .  S
C4915      H4928   1.110       .  S
C4929      C4930   1.400       .  A
C4929      H4939   1.084       .  S
C4930      C4935   1.470   1_455  S
C4931      C4932   1.398       .  A
C4931      C4936   1.509       .  S
C4932      C4933   1.404       .  A
C4932      H4937   1.085       .  S
C4933      C4934   1.418       .  A
C4934      C4938   1.507       .  S
C4935      C4940   1.409       .  A
C4935      C4944   1.397   1_655  A
C4936      H4952   1.110       .  S
C4936      H4954   1.111       .  S
C4938      H4950   1.111       .  S
C4938      H4951   1.105       .  S
C4940      C4941   1.403       .  A
C4940      C4945   1.506       .  S
C4941      C4942   1.404       .  A
C4941      H4946   1.084       .  S
C4942      C4943   1.418       .  A
C4943      C4944   1.397   1_655  A
C4943      C4947   1.511   1_655  S
C4945      H4955   1.111       .  S
C4945      H4956   1.110       .  S
C4945      H4957   1.110       .  S
C4947      H4959   1.105       .  S
C4961      C4962   1.396       .  A
C4961      C4966   1.402       .  A
C4961      H4971   1.084       .  S
C4962      C4967   1.474       .  S
C4962      C4963   1.408       .  A
C4963      C4964   1.401       .  A
C4963      C4968   1.507       .  S
C4964      C4965   1.406       .  A
C4964      H4969   1.084       .  S
C4965      C4966   1.426       .  A
C4966      C4970   1.510       .  S
C4967      C4972   1.410       .  A
C4967      C4976   1.398       .  A
C4968      H4984   1.110       .  S
C4968      H4985   1.110       .  S
C4968      H4986   1.111       .  S
C4970      H4981   1.109       .  S
C4970      H4982   1.111       .  S
C4970      H4983   1.110       .  S
C4972      C4973   1.402       .  A
C4972      C4977   1.506       .  S
C4973      C4974   1.403       .  A
C4973      H4978   1.084       .  S
C4974      C4975   1.416       .  A
C4975      C4976   1.400       .  A
C4975      C4979   1.507       .  S
C4976      H4980   1.084       .  S
C4977      H4987   1.111       .  S
C4977      H4988   1.110       .  S
C4977      H4989   1.110       .  S
C4979      H4990   1.111       .  S
C4979      H4991   1.110       .  S
C4979      H4992   1.108       .  S
C4993      C4994   1.397       .  A
C4993      C4998   1.399       .  A
C4993      H5003   1.085       .  S
C4994      C4999   1.473       .  S
C4994      C4995   1.408       .  A
C4995      C4996   1.404       .  A
C4995      C5000   1.506       .  S
C4996      C4997   1.407       .  A
C4996      H5001   1.084       .  S
C4997      C4998   1.421       .  A
C4998      C5002   1.510       .  S
C4999      C5004   1.410       .  A
C4999      C5008   1.398       .  A
C5000      H5016   1.110       .  S
C5000      H5017   1.110       .  S
C5000      H5018   1.111       .  S
C5002      H5013   1.109       .  S
C5002      H5014   1.110       .  S
C5002      H5015   1.110       .  S
C5004      C5005   1.404       .  A
C5004      C5009   1.506       .  S
C5005      C5006   1.403       .  A
C5005      H5010   1.084       .  S
C5006      C5007   1.413       .  A
C5007      C5008   1.397       .  A
C5007      C5011   1.508       .  S
C5008      H5012   1.085       .  S
C5009      H5019   1.111       .  S
C5009      H5020   1.110       .  S
C5009      H5021   1.110       .  S
C5011      H5022   1.110       .  S
C5011      H5023   1.108       .  S
C5011      H5024   1.110       .  S
C5025      C5026   1.395       .  A
C5025      C5030   1.403       .  A
C5025      H5035   1.084       .  S
C5026      C5031   1.486       .  S
C5026      C5027   1.412       .  A
C5027      C5028   1.410       .  A
C5028      C5029   1.408       .  A
C5029      C5030   1.428       .  A
C5030      C5034   1.511       .  S
C5031      C5036   1.413       .  A
C5031      C5040   1.402       .  A
C5032      H5048   1.110       .  S
C5032      H5049   1.110   1_545  S
C5032      H5050   1.111       .  S
C5034      H5045   1.109       .  S
C5034      H5046   1.111       .  S
C5034      H5047   1.110       .  S
C5036      C5037   1.407       .  A
C5037      C5038   1.402       .  A
C5038      C5039   1.414       .  A
C5039      C5040   1.406       .  A
C5039      C5043   1.506       .  S
C5040      H5044   1.084       .  S
C5041      H5051   1.111       .  S
C5041      H5053   1.110       .  S
C5043      H5054   1.111       .  S
C5043      H5055   1.110       .  S
C5043      H5056   1.108       .  S
C5057      C5058   1.399       .  A
C5057      C5062   1.398       .  A
C5058      C5063   1.477       .  S
C5058      C5059   1.410       .  A
C5059      C5060   1.406       .  A
C5059      C5064   1.505       .  S
C5060      C5061   1.403       .  A
C5060      H5065   1.084       .  S
C5061      C5062   1.413       .  A
C5062      C5066   1.508       .  S
C5063      C5068   1.410       .  A
C5063      C5072   1.398       .  A
C5064      H5080   1.110       .  S
C5064      H5081   1.110       .  S
C5064      H5082   1.111       .  S
C5066      H5077   1.111       .  S
C5066      H5079   1.108       .  S
C5068      C5069   1.401       .  A
C5068      C5073   1.508       .  S
C5069      H5074   1.084       .  S
C5070      C5071   1.420       .  A
C5071      C5075   1.504       .  S
C5072      H5076   1.084       .  S
C5073      H5083   1.111       .  S
C5073      H5084   1.110       .  S
C5073      H5085   1.109       .  S
C5075      H5086   1.111       .  S
C5075      H5087   1.110       .  S
C5075      H5088   1.107       .  S
C5089      C5090   1.399       .  A
C5089      C5094   1.402       .  A
C5089      H5099   1.085       .  S
C5090      C5095   1.481       .  S
C5090      C5091   1.407       .  A
C5091      C5092   1.405       .  A
C5091      C5096   1.506       .  S
C5092      C5093   1.411       .  A
C5092      H5097   1.083       .  S
C5093      C5094   1.424       .  A
C5094      C5098   1.509       .  S
C5095      C5100   1.408       .  A
C5095      C5104   1.400       .  A
C5098      H5109   1.111       .  S
C5098      H5110   1.109       .  S
C5098      H5111   1.109       .  S
C5100      C5101   1.402       .  A
C5100      C5105   1.507       .  S
C5101      C5102   1.408       .  A
C5101      H5106   1.084       .  S
C5102      C5103   1.421       .  A
C5103      C5104   1.404       .  A
C5104      H5108   1.084       .  S
C5105      H5115   1.111       .  S
C5105      H5116   1.109       .  S
C5105      H5117   1.110       .  S
C5107      H5119   1.110       .  S
C5107      H5120   1.111       .  S
C5121      C5122   1.400       .  A
C5121      C5126   1.400       .  A
C5121      H5131   1.085       .  S
C5122      C5127   1.474       .  S
C5122      C5123   1.411       .  A
C5123      C5124   1.402       .  A
C5123      C5128   1.506       .  S
C5124      C5125   1.401       .  A
C5124      H5129   1.084       .  S
C5125      C5126   1.413       .  A
C5126      C5130   1.508       .  S
C5127      C5132   1.407       .  A
C5127      C5136   1.402       .  A
C5128      H5144   1.110       .  S
C5128      H5145   1.110       .  S
C5128      H5146   1.111       .  S
C5130      H5141   1.111       .  S
C5130      H5142   1.110       .  S
C5130      H5143   1.109       .  S
C5132      C5133   1.401       .  A
C5132      C5137   1.505       .  S
C5133      C5134   1.403       .  A
C5133      H5138   1.084       .  S
C5134      C5135   1.414       .  A
C5135      C5136   1.400       .  A
C5135      C5139   1.510       .  S
C5136      H5140   1.085       .  S
C5137      H5147   1.111       .  S
C5137      H5148   1.110       .  S
C5137      H5149   1.110       .  S
C5139      H5150   1.110       .  S
C5139      H5151   1.108       .  S
C5139      H5152   1.111       .  S
C5153      C5154   1.402       .  A
C5153      C5158   1.401       .  A
C5153      H5163   1.084       .  S
C5154      C5159   1.482       .  S
C5154      C5155   1.413       .  A
C5155      C5156   1.405       .  A
C5155      C5160   1.505       .  S
C5156      C5157   1.402       .  A
C5156      H5161   1.084       .  S
C5157      C5158   1.410       .  A
C5158      C5162   1.508       .  S
C5159      C5164   1.410       .  A
C5159      C5168   1.400       .  A
C5160      H5176   1.110       .  S
C5160      H5177   1.110       .  S
C5160      H5178   1.111       .  S
C5162      H5173   1.110       .  S
C5162      H5174   1.111       .  S
C5162      H5175   1.110       .  S
C5164      C5165   1.406       .  A
C5164      C5169   1.506       .  S
C5165      C5166   1.407       .  A
C5165      H5170   1.084       .  S
C5166      C5167   1.420       .  A
C5167      C5168   1.403       .  A
C5167      C5171   1.508       .  S
C5168      H5172   1.085       .  S
C5169      H5179   1.111       .  S
C5169      H5180   1.110       .  S
C5169      H5181   1.110       .  S
C5171      H5182   1.109       .  S
C5171      H5183   1.110       .  S
C5171      H5184   1.111       .  S
C5185      C5186   1.398       .  A
C5185      C5190   1.396       .  A
C5185      H5195   1.085       .  S
C5186      C5191   1.469       .  S
C5186      C5187   1.410       .  A
C5187      C5188   1.401       .  A
C5187      C5192   1.506       .  S
C5188      C5189   1.401       .  A
C5188      H5193   1.084       .  S
C5189      C5190   1.412       .  A
C5190      C5194   1.507   1_565  S
C5191      C5196   1.409       .  A
C5191      C5200   1.397       .  A
C5192      H5208   1.110       .  S
C5192      H5209   1.110       .  S
C5192      H5210   1.111       .  S
C5194      H5205   1.110       .  S
C5194      H5206   1.110       .  S
C5194      H5207   1.109       .  S
C5196      C5197   1.396       .  A
C5196      C5201   1.510       .  S
C5197      C5198   1.407       .  A
C5197      H5202   1.084       .  S
C5198      C5199   1.422       .  A
C5199      C5200   1.404       .  A
C5199      C5203   1.507       .  S
C5200      H5204   1.084       .  S
C5201      H5211   1.111       .  S
C5201      H5212   1.110       .  S
C5201      H5213   1.109       .  S
C5203      H5214   1.109       .  S
C5203      H5215   1.110       .  S
C5203      H5216   1.111       .  S
C5217      C5218   1.397       .  A
C5217      C5222   1.401       .  A
C5217      H5227   1.084       .  S
C5218      C5223   1.483       .  S
C5218      C5219   1.412       .  A
C5219      C5220   1.408       .  A
C5219      C5224   1.506       .  S
C5220      C5221   1.407       .  A
C5220      H5225   1.084       .  S
C5221      C5222   1.421       .  A
C5222      C5226   1.510       .  S
C5223      C5228   1.406       .  A
C5223      C5232   1.405       .  A
C5224      H5240   1.110       .  S
C5224      H5241   1.110       .  S
C5224      H5242   1.111       .  S
C5226      H5237   1.111       .  S
C5226      H5238   1.111       .  S
C5226      H5239   1.108       .  S
C5228      C5229   1.399       .  A
C5228      C5233   1.508       .  S
C5229      C5230   1.409       .  A
C5229      H5234   1.084       .  S
C5230      C5231   1.418       .  A
C5231      C5232   1.410       .  A
C5231      C5235   1.507       .  S
C5232      H5236   1.084       .  S
C5233      H5243   1.111       .  S
C5233      H5244   1.110       .  S
C5233      H5245   1.110       .  S
C5235      H5246   1.110       .  S
C5235      H5247   1.104       .  S
C5235      H5248   1.110       .  S
C5249      C5250   1.398       .  A
C5250      C5255   1.475       .  S
C5250      C5251   1.409       .  A
C5251      C5252   1.397       .  A
C5251      C5256   1.509       .  S
C5252      C5253   1.407       .  A
C5252      H5257   1.084       .  S
C5254      C5258   1.507       .  S
C5255      C5260   1.409       .  A
C5255      C5264   1.401       .  A
C5256      H5272   1.110       .  S
C5256      H5273   1.110       .  S
C5256      H5274   1.111       .  S
C5258      H5269   1.111       .  S
C5258      H5270   1.111       .  S
C5258      H5271   1.109       .  S
C5260      C5261   1.401       .  A
C5260      C5265   1.506       .  S
C5261      C5262   1.403       .  A
C5261      H5266   1.085       .  S
C5262      C5263   1.414       .  A
C5263      C5264   1.401       .  A
C5263      C5267   1.508       .  S
C5264      H5268   1.085       .  S
C5265      H5275   1.111       .  S
C5265      H5276   1.110       .  S
C5265      H5277   1.110       .  S
C5267      H5278   1.110       .  S
C5267      H5279   1.106       .  S
C5267      H5280   1.111       .  S
C5281      C5282   1.397       .  A
C5281      C5286   1.402       .  A
C5281      H5291   1.084       .  S
C5282      C5287   1.470       .  S
C5282      C5283   1.407       .  A
C5283      C5284   1.398       .  A
C5283      C5288   1.508       .  S
C5284      C5285   1.408       .  A
C5284      H5289   1.084       .  S
C5285      C5286   1.421       .  A
C5286      C5290   1.507       .  S
C5287      C5292   1.406       .  A
C5287      C5296   1.398       .  A
C5288      H5304   1.110       .  S
C5288      H5305   1.110       .  S
C5288      H5306   1.111       .  S
C5290      H5301   1.111       .  S
C5290      H5302   1.110       .  S
C5290      H5303   1.110       .  S
C5292      C5293   1.396       .  A
C5292      C5297   1.509       .  S
C5293      C5294   1.409       .  A
C5293      H5298   1.084       .  S
C5294      C5295   1.421       .  A
C5295      C5296   1.404       .  A
C5296      H5300   1.084       .  S
C5297      H5307   1.111       .  S
C5297      H5308   1.110       .  S
C5297      H5309   1.110       .  S
C5299      H5310   1.110       .  S
C5299      H5311   1.110       .  S
C5299      H5312   1.111       .  S
C5313      C5314   1.403       .  A
C5313      C5318   1.406       .  A
C5313      H5323   1.084       .  S
C5314      C5319   1.474       .  S
C5314      C5315   1.406       .  A
C5315      C5316   1.396       .  A
C5315      C5320   1.508       .  S
C5316      C5317   1.407       .  A
C5316      H5321   1.084       .  S
C5317      C5318   1.416       .  A
C5318      C5322   1.506       .  S
C5319      C5324   1.410       .  A
C5319      C5328   1.400       .  A
C5320      H5336   1.110       .  S
C5320      H5337   1.110       .  S
C5320      H5338   1.111       .  S
C5322      H5333   1.111       .  S
C5322      H5334   1.110       .  S
C5322      H5335   1.110       .  S
C5324      C5325   1.401       .  A
C5324      C5329   1.507       .  S
C5325      C5326   1.402       .  A
C5325      H5330   1.084       .  S
C5326      C5327   1.412       .  A
C5327      C5328   1.401       .  A
C5328      H5332   1.084       .  S
C5329      H5339   1.111       .  S
C5329      H5340   1.110       .  S
C5329      H5341   1.110       .  S
C5331      H5342   1.108       .  S
C5331      H5343   1.110       .  S
C5331      H5344   1.111       .  S
C5345      C5350   1.399       .  A
C5345      H5355   1.085   1_455  S
C5346      C5351   1.474       .  S
C5346      C5347   1.408       .  A
C5347      C5348   1.403       .  A
C5347      C5352   1.506       .  S
C5348      C5349   1.405       .  A
C5348      H5353   1.084       .  S
C5350      C5354   1.506   1_455  S
C5351      C5360   1.402       .  A
C5352      H5368   1.110       .  S
C5352      H5369   1.108       .  S
C5352      H5370   1.111       .  S
C5354      H5365   1.110       .  S
C5354      H5366   1.111       .  S
C5354      H5367   1.108       .  S
C5356      C5357   1.397       .  A
C5356      C5361   1.510       .  S
C5357      H5362   1.082       .  S
C5358      C5359   1.415       .  A
C5359      C5360   1.406       .  A
C5359      C5363   1.506       .  S
C5360      H5364   1.084       .  S
C5361      H5371   1.111       .  S
C5361      H5372   1.110   1_455  S
C5361      H5373   1.107       .  S
C5363      H5374   1.110       .  S
C5363      H5375   1.110       .  S
C5363      H5376   1.111       .  S
C5377      C5378   1.401       .  A
C5377      C5382   1.399       .  A
C5377      H5387   1.085       .  S
C5378      C5383   1.477       .  S
C5378      C5379   1.410       .  A
C5379      C5380   1.404       .  A
C5379      C5384   1.506       .  S
C5380      C5381   1.403       .  A
C5380      H5385   1.084       .  S
C5381      C5382   1.412       .  A
C5382      C5386   1.507       .  S
C5383      C5388   1.413       .  A
C5383      C5392   1.399       .  A
C5384      H5400   1.110       .  S
C5384      H5401   1.110       .  S
C5384      H5402   1.111       .  S
C5386      H5397   1.110       .  S
C5386      H5398   1.111       .  S
C5386      H5399   1.109       .  S
C5388      C5389   1.401       .  A
C5388      C5393   1.508       .  S
C5389      C5390   1.401       .  A
C5389      H5394   1.084       .  S
C5390      C5391   1.417       .  A
C5391      C5392   1.402       .  A
C5391      C5395   1.509       .  S
C5392      H5396   1.084       .  S
C5393      H5403   1.111       .  S
C5393      H5404   1.110       .  S
C5393      H5405   1.110       .  S
C5395      H5406   1.111       .  S
C5395      H5407   1.106       .  S
C5395      H5408   1.110       .  S
C5409      C5410   1.399       .  A
C5409      C5414   1.397       .  A
C5409      H5419   1.084       .  S
C5410      C5415   1.464       .  S
C5410      C5411   1.408       .  A
C5411      C5412   1.398       .  A
C5411      C5416   1.506       .  S
C5412      C5413   1.400       .  A
C5412      H5417   1.084       .  S
C5413      C5414   1.410       .  A
C5414      C5418   1.507       .  S
C5415      C5420   1.406       .  A
C5415      C5424   1.401       .  A
C5416      H5432   1.110       .  S
C5416      H5433   1.110       .  S
C5416      H5434   1.111       .  S
C5418      H5429   1.111       .  S
C5418      H5430   1.111       .  S
C5418      H5431   1.110       .  S
C5420      C5421   1.395       .  A
C5420      C5425   1.508       .  S
C5421      C5422   1.404       .  A
C5421      H5426   1.084       .  S
C5422      C5423   1.412       .  A
C5423      C5424   1.401       .  A
C5423      C5427   1.507       .  S
C5424      H5428   1.084       .  S
C5425      H5435   1.111       .  S
C5425      H5436   1.110       .  S
C5425      H5437   1.109       .  S
C5427      H5438   1.111       .  S
C5427      H5439   1.109       .  S
C5427      H5440   1.110       .  S
C5441      C5442   1.398       .  A
C5441      C5446   1.399       .  A
C5441      H5451   1.085       .  S
C5442      C5447   1.473       .  S
C5443      C5444   1.401       .  A
C5443      C5448   1.507       .  S
C5444      C5445   1.402       .  A
C5444      H5449   1.084       .  S
C5446      C5450   1.509       .  S
C5447      C5456   1.401       .  A
C5448      H5464   1.109       .  S
C5448      H5465   1.110       .  S
C5448      H5466   1.111       .  S
C5450      H5461   1.108       .  S
C5450      H5462   1.111       .  S
C5450      H5463   1.109       .  S
C5453      C5454   1.403       .  A
C5454      C5455   1.410       .  A
C5455      C5456   1.397       .  A
C5455      C5459   1.508       .  S
C5456      H5460   1.085       .  S
C5457      H5467   1.110       .  S
C5457      H5469   1.110       .  S
C5459      H5470   1.111       .  S
C5459      H5471   1.110       .  S
C5459      H5472   1.109       .  S
