geometry optimzed in LAMMPS
_audit_creation_date              2020-11-30 
_audit_creation_method            'lammps2cif' 
_symmetry_space_group_name_H-M    'P1' 
_symmetry_Int_Tables_number       1 
_symmetry_cell_setting            triclinic 
loop_ 
_symmetry_equiv_pos_as_xyz 
  x,y,z 
_cell_length_a                    29.92471138 
_cell_length_b                    31.623835897101248 
_cell_length_c                    24.182471338473512 
_cell_angle_alpha                 89.97313709659124 
_cell_angle_beta                  89.86488353150214 
_cell_angle_gamma                 114.67348745636079 
loop_ 
_atom_site_label 
_atom_site_type_symbol 
_atom_site_fract_x 
_atom_site_fract_y 
_atom_site_fract_z 
_atom_site_charge 
C1          C  0.33054365  0.67161286  0.30441839     0.46300
H2          H  0.33045013  0.67324099  0.35022194    -0.02700
C3          C  0.32946335  0.66915674  0.19681557     0.46300
H4          H  0.32910328  0.66785706  0.15089861    -0.02700
C5          C  0.36123784  0.64739847  0.27985562    -0.16000
C6          C  0.27892433  0.64663803  0.27987283    -0.16200
C7          C  0.35158748  0.71969654  0.27757012    -0.16600
C8          C  0.35928218  0.64510287  0.22285079    -0.16500
C9          C  0.27848267  0.64495228  0.22310627    -0.16100
C10         C  0.35177475  0.71843038  0.22072401    -0.16400
O11         O  0.26622093  0.41768535  0.80618440    -0.73600
O12         O  0.17284717  0.41442023  0.69516072    -0.73600
O13         O  0.26486965  0.41619811  0.69440942    -0.73700
O14         O  0.17353617  0.41602000  0.80710002    -0.73700
O15         O  0.20690704  0.49368020  0.80526377    -0.73700
O16         O  0.29739543  0.49388458  0.69306639    -0.73600
O17         O  0.20602860  0.49211643  0.69391209    -0.73600
O18         O  0.29882524  0.49534660  0.80422384    -0.73700
Ni19       Ni  0.21814666  0.41321739  0.75087990     1.25400
Ni20       Ni  0.25342051  0.49644751  0.74915710     1.25400
C21         C  0.29876932  0.45721320  0.82197618     0.88600
C22         C  0.17390728  0.45289146  0.67702479     0.88500
C23         C  0.29651549  0.45527118  0.67603907     0.88500
C24         C  0.17446442  0.45497256  0.82335223     0.88700
O25         O  0.21044036  0.69525987  0.69846761    -0.73600
O26         O  0.29455244  0.78278293  0.80403983    -0.73600
O27         O  0.21464850  0.69946604  0.81003231    -0.73700
O28         O  0.29071538  0.77862139  0.69253187    -0.73700
O29         O  0.24190890  0.81609204  0.69271171    -0.73700
O30         O  0.16506227  0.73613126  0.81010282    -0.73600
O31         O  0.24530088  0.81980507  0.80456701    -0.73600
O32         O  0.16137489  0.73247341  0.69825025    -0.73700
Ni33       Ni  0.25431793  0.73772844  0.75123227     1.25400
Ni34       Ni  0.20161966  0.77745116  0.75138200     1.25400
C35         C  0.17166320  0.69904997  0.68188172     0.88600
C36         C  0.28412040  0.81597463  0.82093910     0.88500
C37         C  0.17693102  0.70423231  0.82860704     0.88500
C38         C  0.27958296  0.81101180  0.67433326     0.88700
O39         O  0.79323322  0.47947790  0.30328107    -0.73600
O40         O  0.69950332  0.47548798  0.19353142    -0.73600
O41         O  0.79182266  0.47778397  0.19192792    -0.73700
O42         O  0.70151647  0.47701873  0.30465167    -0.73700
O43         O  0.73332624  0.55468697  0.30275724    -0.73700
O44         O  0.82498920  0.55545066  0.19041821    -0.73600
O45         O  0.73202350  0.55313885  0.19119074    -0.73600
O46         O  0.82553422  0.55715905  0.30226301    -0.73700
Ni47       Ni  0.74540890  0.47472153  0.24829589     1.25400
Ni48       Ni  0.78017212  0.55794506  0.24647353     1.25400
C49         C  0.82496501  0.51886527  0.32030844     0.88600
C50         C  0.69934720  0.51356104  0.17578531     0.88500
C51         C  0.82423036  0.51660136  0.17405964     0.88500
C52         C  0.70198220  0.51557445  0.32130656     0.88700
O53         O  0.06418379  0.52247288  0.12780572    -0.80100
O54         O  0.89759499  0.43034966  0.94948755    -0.64800
O55         O  0.01305714  0.46674746  0.03736388    -1.11400
C56         C  0.08129452  0.59463302  0.91582659     1.06800
O57         O  0.93503984  0.45465675  0.86831907    -0.78000
O58         O  0.03213613  0.47216117  0.87897239    -0.65500
Ni59       Ni  0.00668875  0.46565914  0.11667265     1.34900
C60         C  0.06993417  0.47834179  0.90747432     0.85600
O61         O  0.92234020  0.38830448  0.03064861    -0.78500
O62         O  0.94989350  0.40717120  0.11710546    -0.88800
C63         C  0.89695307  0.43193296  0.89720966     0.85100
O64         O  0.96621954  0.49900014  0.12001573    -0.67000
O65         O  0.05469375  0.56564365  0.88018035    -0.86300
C66         C  0.92948487  0.49419643  0.09035623     0.86000
C67         C  0.92158885  0.37897289  0.08192931     1.07500
H68         H  0.97148126  0.52755763  0.96889116     0.39300
O69         O  0.98765301  0.50764760  0.95948646    -1.08900
O70         O  0.08008348  0.50076814  0.95287627    -0.65600
Ni71       Ni  0.04636099  0.52634213  0.00230353     1.26300
O72         O  0.92064429  0.47372516  0.04369366    -0.65800
O73         O  0.07803928  0.58611606  0.96735031    -0.78100
C74         C  0.10292117  0.54317643  0.09929280     0.85300
O75         O  0.10293693  0.54324370  0.04707467    -0.65300
Ni76       Ni  0.99519616  0.50899209  0.88032741     1.27400
Ni77       Ni  0.95423831  0.44787247  0.99470269     1.26100
H78         H  0.02920442  0.44695670  0.02776094     0.39900
O79         O  0.93585691  0.43587539  0.62182075    -0.80100
O80         O  0.10328795  0.54420285  0.45669725    -0.64800
O81         O  0.98694228  0.50493947  0.54305371    -1.11400
C82         C  0.92565314  0.38598612  0.40607609     1.06800
O83         O  0.06130916  0.53843631  0.37984731    -0.78000
O84         O  0.96212668  0.49903676  0.37478065    -0.65500
Ni85       Ni  0.98860203  0.49789228  0.62137650     1.34900
C86         C  0.92892134  0.49922271  0.40719617     0.85600
O87         O  0.07936363  0.58018972  0.54597322    -0.78500
O88         O  0.04087556  0.55959551  0.62840098    -0.88800
C89         C  0.10181719  0.55300872  0.40588021     0.85100
O90         O  0.03512977  0.47129237  0.62455012    -0.67000
O91         O  0.96086182  0.41266306  0.37528881    -0.86300
C92         C  0.06997515  0.47440572  0.59263895     0.86000
C93         C  0.07403970  0.58807490  0.59673573     1.07500
H94         H  0.02572267  0.44812750  0.46741131     0.39300
O95         O  0.01186673  0.47015716  0.45975733    -1.08900
O96         O  0.92329831  0.48391960  0.45647781    -0.65600
Ni97       Ni  0.95194231  0.45044929  0.49995447     1.26300
O98         O  0.07710858  0.49341274  0.54522874    -0.65800
O99         O  0.91823086  0.39594291  0.45539360    -0.78100
C100        C  0.89570278  0.42221641  0.59506890     0.85300
O101        O  0.89492223  0.43236007  0.54459529    -0.65300
Ni102      Ni  0.01093477  0.47539839  0.38113009     1.27400
Ni103      Ni  0.04650804  0.52532231  0.50202649     1.26100
H104        H  0.97294109  0.52706415  0.53668947     0.39900
O105        O  0.75900511  0.15546902  0.19514828    -0.73600
O106        O  0.84027438  0.24199346  0.30356875    -0.73600
O107        O  0.75946300  0.15834705  0.30692513    -0.73700
O108        O  0.83912779  0.23887764  0.19138549    -0.73700
O109        O  0.78983539  0.27583463  0.18998243    -0.73700
O110        O  0.71054297  0.19567508  0.30494125    -0.73600
O111        O  0.79108270  0.27905474  0.30186658    -0.73600
O112        O  0.70996016  0.19271317  0.19343005    -0.73700
Ni113      Ni  0.80128941  0.19737968  0.24939988     1.25400
Ni114      Ni  0.74866162  0.23716487  0.24757036     1.25400
C115        C  0.72081999  0.15960731  0.17723060     0.88600
C116        C  0.82946979  0.27516798  0.31968549     0.88500
C117        C  0.72113504  0.16311048  0.32366781     0.88500
C118        C  0.82754739  0.27071769  0.17205282     0.88700
O119        O  0.42008446  0.14996057  0.30587971    -0.73600
O120        O  0.42061501  0.23258904  0.18844027    -0.73600
O121        O  0.42104672  0.14611281  0.19433324    -0.73700
O122        O  0.41962145  0.23649118  0.30024246    -0.73700
O123        O  0.50171334  0.26914779  0.30062830    -0.73700
O124        O  0.50313272  0.17931359  0.19510390    -0.73600
O125        O  0.50269408  0.26531290  0.18928313    -0.73600
O126        O  0.50217153  0.18314078  0.30623308    -0.73700
Ni127      Ni  0.41734690  0.19012887  0.24721616     1.25400
Ni128      Ni  0.50528543  0.22539421  0.24784869     1.25400
C129        C  0.46123104  0.15218667  0.32395610     0.88600
C130        C  0.46182315  0.26314638  0.17055640     0.88500
C131        C  0.46247572  0.14735526  0.17852054     0.88500
C132        C  0.46055323  0.26818588  0.31679713     0.88700
O133        O  0.49936128  0.70863518  0.80800305    -0.73600
O134        O  0.50006958  0.79328124  0.69449505    -0.73600
O135        O  0.49771515  0.70597551  0.69648750    -0.73700
O136        O  0.50209851  0.79532515  0.80550600    -0.73700
O137        O  0.58421752  0.82622225  0.80418857    -0.73700
O138        O  0.57977258  0.73687730  0.69412699    -0.73600
O139        O  0.58214525  0.82480295  0.69259867    -0.73600
O140        O  0.58142279  0.73889588  0.80619241    -0.73700
Ni141      Ni  0.49696242  0.74969944  0.75107019     1.25400
Ni142      Ni  0.58491015  0.78276108  0.74907497     1.25400
C143        C  0.54008693  0.70960285  0.82540462     0.88600
C144        C  0.54099612  0.82401942  0.67652589     0.88500
C145        C  0.53799465  0.70601698  0.67850307     0.88500
C146        C  0.54369142  0.82576527  0.82193167     0.88700
O147        O  0.45480042  0.92797412  0.37500924    -0.80100
O148        O  0.55474170  0.08499069  0.54747647    -0.64800
O149        O  0.52197283  0.97777682  0.45806050    -1.11400
C150        C  0.38977083  0.90916174  0.58703518     1.06800
O151        O  0.54207392  0.04453644  0.62530729    -0.78000
O152        O  0.50875787  0.95068009  0.62601208    -0.65500
Ni153      Ni  0.51751499  0.98162190  0.37949999     1.34900
C154        C  0.51311111  0.92112009  0.59350819     0.85600
O155        O  0.59906343  0.06677403  0.46080350    -0.78500
O156        O  0.58050457  0.03479380  0.37600101    -0.88800
C157        C  0.55802994  0.08302167  0.59944099     0.85100
O158        O  0.48425681  0.02164633  0.37665604    -0.67000
O159        O  0.41451836  0.94224923  0.61961771    -0.86300
C160        C  0.48642726  0.05440671  0.40826640     0.86000
C161        C  0.60899435  0.06506025  0.40972741     1.07500
H162        H  0.45456513  0.00841416  0.52960018     0.39300
O163        O  0.47851305  0.99653728  0.53916002    -1.08900
O164        O  0.49899886  0.91601314  0.54346156    -0.65600
Ni165      Ni  0.46304294  0.94103851  0.49767992     1.26300
O166        O  0.50616706  0.06143208  0.45581492    -0.65800
O167        O  0.40363298  0.90495236  0.53823851    -0.78100
C168        C  0.44185551  0.88963797  0.40101779     0.85300
O169        O  0.44991996  0.88858314  0.45217985    -0.65300
Ni170      Ni  0.47865405  0.99317838  0.61826562     1.27400
Ni171      Ni  0.53904028  0.03262527  0.50088617     1.26100
H172        H  0.54626363  0.96575168  0.46512699     0.39900
O173        O  0.48675314  0.54229147  0.37814517    -0.80100
O174        O  0.54621537  0.42331611  0.54008907    -0.64800
O175        O  0.47059566  0.47142595  0.45638413    -1.11400
C176        C  0.52333959  0.58974871  0.59388297     1.06800
O177        O  0.51336152  0.43239522  0.61871123    -0.78000
O178        O  0.45179295  0.47470497  0.62288065    -0.65500
Ni179      Ni  0.47746256  0.47796072  0.37785852     1.34900
C180        C  0.42011044  0.47847960  0.59106259     0.85600
O181        O  0.48867940  0.39160815  0.45122624    -0.78500
O182        O  0.46778230  0.41393775  0.37034298    -0.88800
C183        C  0.53799205  0.41508249  0.59125601     0.85100
O184        O  0.54691086  0.49842844  0.37289117    -0.67000
O185        O  0.52981069  0.56015414  0.62496157    -0.86300
C186        C  0.57819071  0.49411719  0.40487597     0.86000
C187        C  0.47381480  0.38399962  0.40127029     1.07500
H188        H  0.56181474  0.52209634  0.53187147     0.39300
O189        O  0.52771914  0.50210092  0.53929497    -1.08900
O190        O  0.43002441  0.49699300  0.54337890    -0.65600
Ni191      Ni  0.48901987  0.52664797  0.49962211     1.26300
O192        O  0.56794847  0.47580962  0.45259343    -0.65800
O193        O  0.50871970  0.58180355  0.54396490    -0.78100
C194        C  0.46085021  0.55850833  0.40504382     0.85300
O195        O  0.45154384  0.54937202  0.45581166    -0.65300
Ni196      Ni  0.52137355  0.49637406  0.61791564     1.27400
Ni197      Ni  0.50892417  0.44660553  0.49614253     1.26100
H198        H  0.43644492  0.45144984  0.46343196     0.39900
O199        O  0.55317732  0.04836325  0.87870511    -0.80100
O200        O  0.44748453  0.88619117  0.04245800    -0.64800
O201        O  0.48314163  0.99760933  0.95986452    -1.11400
C202        C  0.61158373  0.06008847  0.09151309     1.06800
O203        O  0.45866237  0.92268129  0.12299626    -0.78000
O204        O  0.48823248  0.01602499  0.12612918    -0.65500
Ni205      Ni  0.48854555  0.99713927  0.88092558     1.34900
C206        C  0.48912179  0.04910791  0.09581034     0.85600
O207        O  0.40573643  0.90868072  0.95690736    -0.78500
O208        O  0.42415131  0.94641819  0.87514849    -0.88800
C209        C  0.44396008  0.88561755  0.09455592     0.85100
O210        O  0.51873282  0.95489249  0.87458757    -0.67000
O211        O  0.58387105  0.02815871  0.12395619    -0.86300
C212        C  0.51811358  0.92247729  0.90574546     0.86000
C213        C  0.39579409  0.91394359  0.90679450     1.07500
H214        H  0.54765371  0.96224281  0.03102866     0.39300
O215        O  0.52393546  0.97454262  0.04007837    -1.08900
O216        O  0.50793939  0.05739479  0.04765991    -0.65600
Ni217      Ni  0.54204897  0.03129258  0.00042066     1.26300
O218        O  0.49899311  0.91450192  0.95361019    -0.65800
O219        O  0.60130823  0.06391031  0.04129774    -0.78100
C220        C  0.56723717  0.08589855  0.90629307     0.85300
O221        O  0.55809011  0.08551004  0.95731909    -0.65300
Ni222      Ni  0.52096148  0.97573606  0.11914760     1.27400
Ni223      Ni  0.46447598  0.94080384  0.99944277     1.26100
H224        H  0.45942572  0.01007773  0.96829725     0.39900
O225        O  0.52699144  0.44591025  0.87277063    -0.80100
O226        O  0.44817464  0.54607013  0.04514303    -0.64800
O227        O  0.53040790  0.50583595  0.96028664    -1.11400
C228        C  0.47332978  0.37695979  0.08422559     1.06800
O229        O  0.47118998  0.52760015  0.12540234    -0.78000
O230        O  0.54003871  0.49304952  0.12445860    -0.65500
Ni231      Ni  0.52788689  0.50654152  0.88096911     1.34900
C232        C  0.57312095  0.48991779  0.09404429     0.85600
O233        O  0.51164010  0.58587435  0.96360428    -0.78500
O234        O  0.53083651  0.56827381  0.87951061    -0.88800
C235        C  0.44925978  0.54720084  0.09742147     0.85100
O236        O  0.45794101  0.47970703  0.87400974    -0.67000
O237        O  0.46701747  0.40464767  0.11828074    -0.86300
C238        C  0.42486792  0.48283459  0.90440568     0.86000
C239        C  0.52529153  0.59626551  0.91360300     1.07500
H240        H  0.43419947  0.44831059  0.02737881     0.39300
O241        O  0.46776781  0.46761838  0.03769519    -1.08900
O242        O  0.56509589  0.47233103  0.04587845    -0.65600
Ni243      Ni  0.50936451  0.44669746  0.99684049     1.26300
O244        O  0.43304624  0.50112954  0.95222685    -0.65800
O245        O  0.48701726  0.38763812  0.03427665    -0.78100
C246        C  0.54981030  0.42722886  0.90062969     0.85300
O247        O  0.55061778  0.42807003  0.95292069    -0.65300
Ni248      Ni  0.47008480  0.46665808  0.11700633     1.27400
Ni249      Ni  0.48897025  0.52687187  0.00113871     1.26100
H250        H  0.56400093  0.52514946  0.97049439     0.39900
C251        C  0.66876953  0.30484521  0.80243545     0.46300
H252        H  0.67024527  0.30758357  0.84823583    -0.02700
C253        C  0.66603564  0.29975675  0.69500375     0.46300
H254        H  0.66513040  0.29695769  0.64928851    -0.02700
C255        C  0.63689896  0.32674765  0.77560921    -0.16400
C256        C  0.71914985  0.32998556  0.77518469    -0.16200
C257        C  0.64920813  0.25481614  0.78053053    -0.16600
C258        C  0.63444533  0.32334115  0.71863892    -0.16500
C259        C  0.71788214  0.32682841  0.71848927    -0.16100
C260        C  0.64680851  0.25233030  0.72370673    -0.16400
C261        C  0.60251756  0.42295262  0.82371702    -0.12500
C262        C  0.57429697  0.40264763  0.87086140     0.09600
C263        C  0.56891988  0.35863038  0.88836169    -0.12500
C264        C  0.58948619  0.33410144  0.85731312    -0.12500
C265        C  0.61669136  0.35370173  0.80935106     0.09600
C266        C  0.62461844  0.39907861  0.79390841    -0.12500
H267        H  0.60761210  0.45734429  0.81020886     0.13600
H268        H  0.54726950  0.34256727  0.92473726     0.13600
H269        H  0.58274219  0.29936000  0.86995414     0.13600
H270        H  0.64674860  0.41544918  0.75795191     0.13600
C271        C  0.62501674  0.13434349  0.83320102    -0.12500
C272        C  0.59445113  0.13069003  0.87865312     0.09600
C273        C  0.58772524  0.16988521  0.89608601    -0.12500
C274        C  0.60785651  0.21104073  0.86574582    -0.12500
C275        C  0.63532562  0.21388084  0.81780025     0.09600
C276        C  0.64643814  0.17613404  0.80388458    -0.12500
H277        H  0.63162811  0.10475168  0.81988418     0.13600
H278        H  0.56466531  0.16795608  0.93146635     0.13600
H279        H  0.59981467  0.23965657  0.87853798     0.13600
H280        H  0.66958835  0.17815085  0.76860924     0.13600
C281        C  0.59874600  0.38034503  0.59838741    -0.12500
C282        C  0.55747584  0.38506496  0.61969151     0.09600
C283        C  0.53732316  0.36348794  0.67014472    -0.12500
C284        C  0.56002708  0.34022275  0.70032720    -0.12500
C285        C  0.60489416  0.34042105  0.68228077     0.09600
C286        C  0.62215110  0.35830300  0.62934486    -0.12500
H287        H  0.61451372  0.39579027  0.55899722     0.13600
H288        H  0.50453352  0.36531887  0.68675081     0.13600
H289        H  0.54333372  0.32364723  0.73882377     0.13600
H290        H  0.65470624  0.35701341  0.61211040     0.13600
C291        C  0.62532666  0.16197068  0.61257608    -0.12500
C292        C  0.58129502  0.12616295  0.63081273     0.09600
C293        C  0.55823059  0.13216369  0.67871364    -0.12500
C294        C  0.57876147  0.17372097  0.70798118    -0.12500
C295        C  0.62405832  0.20884443  0.69147013     0.09600
C296        C  0.64696494  0.20292672  0.64321754    -0.12500
H297        H  0.64331779  0.15783780  0.57535966     0.13600
H298        H  0.52366144  0.10512345  0.69261947     0.13600
H299        H  0.55946924  0.17826889  0.74382719     0.13600
H300        H  0.68174325  0.22975802  0.62955795     0.13600
C301        C  0.53165705  0.63422803  0.61766484    -0.12400
C302        C  0.53594339  0.66891562  0.64251030    -0.14000
C303        C  0.53986004  0.85987655  0.64037516    -0.12400
C304        C  0.53174540  0.88938995  0.61602882    -0.14000
C305        C  0.53377852  0.64151220  0.89242681    -0.12400
C306        C  0.53868066  0.67527326  0.86529576    -0.14000
C307        C  0.53662310  0.89083798  0.88368727    -0.12400
C308        C  0.54406449  0.86144700  0.85869183    -0.14000
C309        C  0.46260525  0.29786435  0.13130642    -0.12400
C310        C  0.46612491  0.33182299  0.10523052    -0.14000
C311        C  0.46083130  0.30498422  0.35214961    -0.12400
C312        C  0.46485886  0.33952224  0.37712767    -0.14000
C313        C  0.46221587  0.11737457  0.36189731    -0.12400
C314        C  0.46926860  0.08756355  0.38689967    -0.14000
C315        C  0.47143804  0.08122524  0.11910878    -0.12400
C316        C  0.46403614  0.11104520  0.14361043    -0.14000
C317        C  0.68733112  0.12965965  0.36166163    -0.12400
C318        C  0.65390052  0.10031653  0.38731933    -0.14000
C319        C  0.65561962  0.09520963  0.11456828    -0.12400
C320        C  0.68792907  0.12514532  0.14026951    -0.14000
C321        C  0.89119015  0.34297466  0.38221013    -0.12400
C322        C  0.86234717  0.31018976  0.35644201    -0.14000
C323        C  0.84731615  0.36250599  0.66506678    -0.12500
C324        C  0.84922948  0.39379760  0.62300552     0.09600
C325        C  0.80674770  0.39985396  0.60954378    -0.12500
C326        C  0.76363284  0.37691467  0.63973182    -0.12500
C327        C  0.76188463  0.34660566  0.68268497     0.09600
C328        C  0.80356608  0.33836505  0.69407529    -0.12500
H329        H  0.87968819  0.35712934  0.67577415     0.13600
H330        H  0.80764286  0.42424598  0.57762085     0.13600
H331        H  0.73274266  0.38503286  0.63153787     0.13600
H332        H  0.80273721  0.31471006  0.72687590     0.13600
C333        C  0.88631604  0.33513474  0.10336728    -0.12400
C334        C  0.85864792  0.30307031  0.13129928    -0.14000
C335        C  0.81675615  0.36250884  0.88638732    -0.12500
C336        C  0.85041315  0.40638971  0.86797586     0.09600
C337        C  0.83967458  0.42598941  0.82060906    -0.12500
C338        C  0.79622810  0.40189606  0.79164223    -0.12500
C339        C  0.76376021  0.35690820  0.80811121     0.09600
C340        C  0.77384759  0.33772991  0.85631618    -0.12500
H341        H  0.82437259  0.34690114  0.92298462     0.13600
H342        H  0.86472161  0.46022180  0.80634038     0.13600
H343        H  0.78828394  0.41823788  0.75594481     0.13600
H344        H  0.74908468  0.30322271  0.87001450     0.13600
C345        C  0.89347648  0.51415631  0.38477084    -0.12400
C346        C  0.86203087  0.51953206  0.35841953    -0.14000
C347        C  0.89399880  0.50947431  0.11286131    -0.12400
C348        C  0.86214102  0.51589138  0.13757388    -0.14000
C349        C  0.62720059  0.50804679  0.38399324    -0.12400
C350        C  0.66433014  0.51426449  0.35898789    -0.14000
C351        C  0.65961254  0.51127510  0.14059868    -0.12400
C352        C  0.62174658  0.50448998  0.11676024    -0.14000
C353        C  0.34492979  0.87339442  0.60874066    -0.12400
C354        C  0.31214260  0.84401236  0.63507886    -0.14000
C355        C  0.10857600  0.63084795  0.62096005    -0.12400
C356        C  0.13785991  0.66370676  0.64620409    -0.14000
C357        C  0.31810190  0.85063908  0.85717279    -0.12400
C358        C  0.35118106  0.87994885  0.88289779    -0.14000
C359        C  0.11735311  0.63840172  0.89511830    -0.12400
C360        C  0.14572086  0.67107213  0.86855405    -0.14000
C361        C  0.33393724  0.45660227  0.63788242    -0.12400
C362        C  0.37100348  0.46356876  0.61224822    -0.14000
C363        C  0.33814794  0.45956537  0.85774288    -0.12400
C364        C  0.37605125  0.46723852  0.88195293    -0.14000
C365        C  0.10544988  0.45887890  0.61368307    -0.12400
C366        C  0.13686134  0.45274424  0.63921079    -0.14000
C367        C  0.10511970  0.46266936  0.88487486    -0.12400
C368        C  0.13675429  0.45595854  0.86002194    -0.14000
C369        C  0.15944083  0.54863521  0.17592501    -0.12500
C370        C  0.14905910  0.56847708  0.12864117     0.09600
C371        C  0.18256223  0.61240404  0.11046491    -0.12500
C372        C  0.22493420  0.63726411  0.14110438    -0.12500
C373        C  0.23456112  0.61806940  0.18949979     0.09600
C374        C  0.20245513  0.57280369  0.20538422    -0.12500
H375        H  0.13442246  0.51424318  0.18975703     0.13600
H376        H  0.17513413  0.62800738  0.07374134     0.13600
H377        H  0.24947719  0.67176543  0.12765074     0.13600
H378        H  0.21028120  0.55634586  0.24104944     0.13600
C379        C  0.19034003  0.57456008  0.38987197    -0.12500
C380        C  0.14782522  0.58057483  0.37663649     0.09600
C381        C  0.14920259  0.61081881  0.33352806    -0.12500
C382        C  0.19262562  0.63432252  0.30363562    -0.12500
C383        C  0.23450713  0.62643716  0.31521388     0.09600
C384        C  0.23304269  0.59678326  0.35883909    -0.12500
H385        H  0.18981288  0.55083097  0.42246289     0.13600
H386        H  0.11672048  0.61602326  0.32287317     0.13600
H387        H  0.19312568  0.65745680  0.27036859     0.13600
H388        H  0.26394380  0.58879888  0.36722786     0.13600
C389        C  0.40838602  0.64013345  0.14125275    -0.12500
C390        C  0.38014052  0.61923155  0.18826153     0.09600
C391        C  0.37230398  0.57371700  0.20267939    -0.12500
C392        C  0.39547408  0.55075299  0.17317002    -0.12500
C393        C  0.42490987  0.57206199  0.12722713     0.09600
C394        C  0.43040473  0.61646091  0.11053099    -0.12500
H395        H  0.41441235  0.67511616  0.12924764     0.13600
H396        H  0.34936831  0.55650201  0.23779083     0.13600
H397        H  0.39012090  0.51611441  0.18592846     0.13600
H398        H  0.45283058  0.63323717  0.07491036     0.13600
C399        C  0.37417269  0.61197369  0.36771849    -0.12500
C400        C  0.39128597  0.63061670  0.31519939     0.09600
C401        C  0.43677629  0.63245941  0.29688139    -0.12500
C402        C  0.46051845  0.61000174  0.32662875    -0.12500
C403        C  0.44057047  0.58771402  0.37675683     0.09600
C404        C  0.39852542  0.59080552  0.39821658    -0.12500
H405        H  0.34114083  0.61210470  0.38501867     0.13600
H406        H  0.45324842  0.64982157  0.25866548     0.13600
H407        H  0.49388892  0.60938126  0.31003385     0.13600
H408        H  0.38291157  0.57474756  0.43740079     0.13600
C409        C  0.35295695  0.76682064  0.13874772    -0.12500
C410        C  0.37681503  0.75947069  0.18516110     0.09600
C411        C  0.42455497  0.79178770  0.19813209    -0.12500
C412        C  0.44627923  0.83293781  0.16823379    -0.12500
C413        C  0.42152124  0.84119351  0.12338560     0.09600
C414        C  0.37546062  0.80743833  0.10754309    -0.12500
H415        H  0.31644197  0.74204324  0.12773968     0.13600
H416        H  0.44441719  0.78580213  0.23242526     0.13600
H417        H  0.48241106  0.85840027  0.18006655     0.13600
H418        H  0.35622297  0.81337582  0.07259211     0.13600
C419        C  0.40156788  0.76505262  0.35696108    -0.12500
C420        C  0.37165664  0.76253326  0.31138618     0.09600
C421        C  0.36229186  0.80121212  0.29763472    -0.12500
C422        C  0.38508967  0.84276644  0.32684935    -0.12500
C423        C  0.41595940  0.84556006  0.37155541     0.09600
C424        C  0.42320240  0.80614438  0.38715233    -0.12500
H425        H  0.40947020  0.73572513  0.36821666     0.13600
H426        H  0.33827139  0.79957716  0.26350374     0.13600
H427        H  0.37855223  0.87265246  0.31464812     0.13600
H428        H  0.44703807  0.80765015  0.42145838     0.13600
loop_ 
_geom_bond_atom_site_label_1 
_geom_bond_atom_site_label_2 
_geom_bond_distance 
_geom_bond_site_symmetry_2 
_ccdc_geom_bond_type 
C1            H2   1.109       .  S
C1            C7   1.526       .  S
C1            C6   1.532       .  S
C1            C5   1.539       .  S
C3            H4   1.111       .  S
C3            C9   1.529       .  S
C3            C8   1.530       .  S
C3           C10   1.530       .  S
C5            C8   1.381       .  D
C5          C400   1.491       .  S
C6            C9   1.374       .  D
C6          C383   1.480       .  S
C7           C10   1.375       .  D
C7          C420   1.479       .  S
C8          C390   1.478       .  S
C9          C373   1.478       .  S
C10         C410   1.473       .  S
O11         Ni19   1.928       .  S
O11          C21   1.282       .  A
O12         Ni19   1.925       .  S
O12          C22   1.281       .  A
O13         Ni19   1.926       .  S
O13          C23   1.281       .  A
O14         Ni19   1.931       .  S
O14          C24   1.282       .  A
O15         Ni20   1.917       .  S
O15          C24   1.280       .  A
O16         Ni20   1.913       .  S
O16          C23   1.279       .  A
O17         Ni20   1.914       .  S
O17          C22   1.279       .  A
O18         Ni20   1.915       .  S
O18          C21   1.279       .  A
Ni19        Ni20   2.392       .  S
C21         C363   1.440       .  S
C22         C366   1.437       .  S
C23         C361   1.436       .  S
C24         C368   1.444       .  S
O25         Ni33   1.922       .  S
O25          C35   1.281       .  A
O26         Ni33   1.920       .  S
O26          C36   1.280       .  A
O27         Ni33   1.920       .  S
O27          C37   1.280       .  A
O28         Ni33   1.921       .  S
O28          C38   1.280       .  A
O29         Ni34   1.929       .  S
O29          C38   1.282       .  A
O30         Ni34   1.928       .  S
O30          C37   1.282       .  A
O31         Ni34   1.925       .  S
O31          C36   1.281       .  A
O32         Ni34   1.924       .  S
O32          C35   1.281       .  A
Ni33        Ni34   2.391       .  S
C35         C356   1.442       .  S
C36         C357   1.442       .  S
C37         C360   1.443       .  S
C38         C354   1.444       .  S
O39         Ni47   1.915       .  S
O39          C49   1.280       .  A
O40         Ni47   1.918       .  S
O40          C50   1.280       .  A
O41         Ni47   1.917       .  S
O41          C51   1.280       .  A
O42         Ni47   1.913       .  S
O42          C52   1.279       .  A
O43         Ni48   1.923       .  S
O43          C52   1.281       .  A
O44         Ni48   1.929       .  S
O44          C51   1.282       .  A
O45         Ni48   1.927       .  S
O45          C50   1.281       .  A
O46         Ni48   1.924       .  S
O46          C49   1.280       .  A
Ni47        Ni48   2.393       .  S
C49         C346   1.437       .  S
C50         C351   1.441       .  S
C51         C348   1.443       .  S
C52         C350   1.434       .  S
O53         Ni59   1.919       .  S
O53          C74   1.269       .  A
O54         Ni77   1.898       .  S
O54          C63   1.266       .  A
O55         Ni59   1.926       .  S
O55         Ni77   1.911   1_454  S
O55         Ni71   1.921       .  S
O55          H78   0.965       .  S
C56          O73   1.270       .  A
C56          O65   1.270       .  A
C56         C359   1.442       .  S
O57         Ni76   1.923       .  S
O57          C63   1.271       .  A
O58         Ni76   1.912   1_455  S
O58          C60   1.270       .  A
Ni59         O62   1.920   1_455  S
Ni59         O64   1.911   1_455  S
C60          O70   1.274       .  A
C60         C367   1.444       .  S
O61         Ni77   1.926   1_554  S
O61          C67   1.273       .  A
O62          C67   1.269       .  A
C63         C336   1.469       .  S
O64          C66   1.269       .  A
O65         Ni76   1.928   1_455  S
C66          O72   1.273       .  A
C66         C347   1.443       .  S
C67         C333   1.442       .  S
H68          O69   0.968       .  S
O69         Ni77   1.927       .  S
O69         Ni71   1.911   1_656  S
O69         Ni76   1.925       .  S
O70         Ni71   1.944   1_556  S
Ni71         O75   1.892       .  S
Ni71         O73   1.920   1_554  S
O72         Ni77   1.940   1_554  S
C74          O75   1.263       .  A
C74         C370   1.460       .  S
O79         Ni85   1.937       .  S
O79         C100   1.273       .  A
O80        Ni103   1.894       .  S
O80          C89   1.265       .  A
O81         Ni85   1.910       .  S
O81        Ni103   1.900   1_655  S
O81         Ni97   1.911       .  S
O81         H104   0.966       .  S
C82          O99   1.276       .  A
C82          O91   1.277       .  A
C82         C321   1.442       .  S
O83        Ni102   1.933       .  S
O83          C89   1.271       .  A
O84        Ni102   1.905   1_655  S
O84          C86   1.266       .  A
Ni85         O88   1.933   1_655  S
Ni85         O90   1.905   1_655  S
C86          O96   1.270       .  A
C86         C345   1.436       .  S
O87        Ni103   1.921       .  S
O87          C93   1.276       .  A
O88          C93   1.277       .  A
C89         C380   1.466       .  S
O90          C92   1.266       .  A
O91        Ni102   1.929   1_655  S
C92          O98   1.270       .  A
C92         C365   1.437       .  S
C93         C355   1.441       .  S
H94          O95   0.966       .  S
O95        Ni103   1.913       .  S
O95         Ni97   1.899   1_455  S
O95        Ni102   1.910       .  S
O96         Ni97   1.929       .  S
Ni97        O101   1.892       .  S
Ni97         O99   1.925       .  S
O98        Ni103   1.930       .  S
C100        O101   1.265       .  A
C100        C324   1.466       .  S
O105       Ni113   1.920       .  S
O105        C115   1.280       .  A
O106       Ni113   1.924       .  S
O106        C116   1.281       .  A
O107       Ni113   1.930       .  S
O107        C117   1.282       .  A
O108       Ni113   1.929       .  S
O108        C118   1.282       .  A
O109       Ni114   1.920       .  S
O109        C118   1.280       .  A
O110       Ni114   1.921       .  S
O110        C117   1.280       .  A
O111       Ni114   1.922       .  S
O111        C116   1.281       .  A
O112       Ni114   1.919       .  S
O112        C115   1.280       .  A
Ni113      Ni114   2.392       .  S
C115        C320   1.437       .  S
C116        C322   1.442       .  S
C117        C317   1.445       .  S
C118        C334   1.444       .  S
O119       Ni127   1.928       .  S
O119        C129   1.282       .  A
O120       Ni127   1.929       .  S
O120        C130   1.282       .  A
O121       Ni127   1.927       .  S
O121        C131   1.281       .  A
O122       Ni127   1.928       .  S
O122        C132   1.282       .  A
O123       Ni128   1.918       .  S
O123        C132   1.280       .  A
O124       Ni128   1.918       .  S
O124        C131   1.280       .  A
O125       Ni128   1.920       .  S
O125        C130   1.280       .  A
O126       Ni128   1.919       .  S
O126        C129   1.280       .  A
Ni127      Ni128   2.391       .  S
C129        C313   1.443       .  S
C130        C309   1.444       .  S
C131        C316   1.442       .  S
C132        C311   1.442       .  S
O133       Ni141   1.914       .  S
O133        C143   1.278       .  A
O134       Ni141   1.916       .  S
O134        C144   1.279       .  A
O135       Ni141   1.919       .  S
O135        C145   1.280       .  A
O136       Ni141   1.912       .  S
O136        C146   1.279       .  A
O137       Ni142   1.921       .  S
O137        C146   1.280       .  A
O138       Ni142   1.926       .  S
O138        C145   1.281       .  A
O139       Ni142   1.931       .  S
O139        C144   1.282       .  A
O140       Ni142   1.929       .  S
O140        C143   1.282       .  A
Ni141      Ni142   2.392       .  S
C143        C306   1.439       .  S
C144        C303   1.443       .  S
C145        C302   1.442       .  S
C146        C308   1.433       .  S
O147       Ni153   1.938       .  S
O147        C168   1.273       .  A
O148       Ni171   1.894       .  S
O148        C157   1.264       .  A
O149       Ni153   1.912       .  S
O149       Ni171   1.899   1_565  S
O149       Ni165   1.913       .  S
O149        H172   0.966       .  S
C150        O167   1.275       .  A
C150        O159   1.273       .  A
C150        C353   1.444       .  S
O151       Ni170   1.923   1_545  S
O151        C157   1.270       .  A
O152       Ni170   1.914       .  S
O152        C154   1.269       .  A
Ni153       O156   1.934   1_565  S
Ni153       O158   1.910   1_565  S
C154        O164   1.271       .  A
C154        C304   1.443       .  S
O155       Ni171   1.924       .  S
O155        C161   1.276       .  A
O156        C161   1.277       .  A
C157        C292   1.460       .  S
O158        C160   1.268       .  A
O159       Ni170   1.923       .  S
C160        O166   1.271       .  A
C160        C314   1.442       .  S
C161        C318   1.445       .  S
H162        O163   0.966   1_545  S
O163       Ni171   1.925   1_565  S
O163       Ni165   1.904       .  S
O163       Ni170   1.916       .  S
O164       Ni165   1.930       .  S
Ni165       O169   1.891       .  S
Ni165       O167   1.929       .  S
O166       Ni171   1.933       .  S
C168        O169   1.264       .  A
C168        C423   1.467       .  S
O173       Ni179   1.935       .  S
O173        C194   1.272       .  A
O174       Ni197   1.900       .  S
O174        C183   1.267       .  A
O175       Ni179   1.911       .  S
O175       Ni197   1.901       .  S
O175       Ni191   1.910       .  S
O175        H198   0.966       .  S
C176        O193   1.274       .  A
C176        O185   1.277       .  A
C176        C301   1.442       .  S
O177       Ni196   1.936       .  S
O177        C183   1.272       .  A
O178       Ni196   1.904       .  S
O178        C180   1.266       .  A
Ni179       O182   1.931       .  S
Ni179       O184   1.905       .  S
C180        O190   1.270       .  A
C180        C362   1.436       .  S
O181       Ni197   1.923       .  S
O181        C187   1.276       .  A
O182        C187   1.277       .  A
C183        C282   1.476       .  S
O184        C186   1.266       .  A
O185       Ni196   1.933       .  S
C186        O192   1.269       .  A
C186        C349   1.434       .  S
C187        C312   1.441       .  S
H188        O189   0.966       .  S
O189       Ni197   1.915       .  S
O189       Ni191   1.902       .  S
O189       Ni196   1.911       .  S
O190       Ni191   1.930       .  S
Ni191       O195   1.891       .  S
Ni191       O193   1.920       .  S
O192       Ni197   1.926       .  S
C194        O195   1.265       .  A
C194        C403   1.469       .  S
O199       Ni205   1.937   1_545  S
O199        C220   1.271       .  A
O200       Ni223   1.894   1_554  S
O200        C209   1.264       .  A
O201       Ni205   1.916       .  S
O201       Ni223   1.901       .  S
O201       Ni217   1.909   1_566  S
O201        H224   0.966   1_565  S
C202        O219   1.271       .  A
C202        O211   1.273       .  A
C202        C319   1.436       .  S
O203       Ni222   1.920       .  S
O203        C209   1.270       .  A
O204       Ni222   1.911   1_545  S
O204        C206   1.268       .  A
Ni205       O208   1.930       .  S
Ni205       O210   1.906       .  S
C206        O216   1.271       .  A
C206        C315   1.441       .  S
O207       Ni223   1.923       .  S
O207        C213   1.276       .  A
O208        C213   1.276       .  A
C209        C413   1.456       .  S
O210        C212   1.266       .  A
O211       Ni222   1.924   1_545  S
C212        O218   1.268       .  A
C212        C307   1.433       .  S
C213        C358   1.442       .  S
H214        O215   0.966       .  S
O215       Ni223   1.922   1_554  S
O215       Ni217   1.902   1_565  S
O215       Ni222   1.915       .  S
O216       Ni217   1.931       .  S
Ni217       O221   1.888   1_554  S
Ni217       O219   1.915       .  S
O218       Ni223   1.924       .  S
C220        O221   1.262       .  A
C220        C272   1.466       .  S
O225       Ni231   1.917       .  S
O225        C246   1.268       .  A
O226       Ni249   1.899       .  S
O226        C235   1.265       .  A
O227       Ni231   1.920       .  S
O227       Ni249   1.908   1_556  S
O227       Ni243   1.920       .  S
O227        H250   0.966       .  S
C228        O245   1.274       .  A
C228        O237   1.272       .  A
C228        C310   1.444       .  S
O229       Ni248   1.924       .  S
O229        C235   1.270       .  A
O230       Ni248   1.912       .  S
O230        C232   1.269       .  A
Ni231       O234   1.917       .  S
Ni231       O236   1.910       .  S
C232        O242   1.270       .  A
C232        C352   1.441       .  S
O233       Ni249   1.925   1_556  S
O233        C239   1.274       .  A
O234        C239   1.270       .  A
C235        C393   1.465       .  S
O236        C238   1.268       .  A
O237       Ni248   1.925       .  S
C238        O244   1.271       .  A
C238        C364   1.440       .  S
C239        C305   1.439       .  S
H240        O241   0.966       .  S
O241       Ni249   1.923       .  S
O241       Ni243   1.909   1_554  S
O241       Ni248   1.920       .  S
O242       Ni243   1.930   1_554  S
Ni243       O247   1.898       .  S
Ni243       O245   1.926   1_556  S
O244       Ni249   1.933   1_556  S
C246        O247   1.265       .  A
C246        C262   1.460       .  S
C251        H252   1.111       .  S
C251        C257   1.535       .  S
C251        C256   1.528       .  S
C251        C255   1.538       .  S
C253        H254   1.109       .  S
C253        C259   1.536       .  S
C253        C258   1.537       .  S
C253        C260   1.529       .  S
C255        C258   1.382       .  D
C255        C265   1.479       .  S
C256        C259   1.374       .  D
C256        C339   1.482       .  S
C257        C260   1.377       .  D
C257        C275   1.486       .  S
C258        C285   1.500       .  S
C259        C327   1.477       .  S
C260        C295   1.478       .  S
C261        C262   1.403       .  A
C261        C266   1.394       .  A
C261        H267   1.083       .  S
C262        C263   1.398       .  A
C263        C264   1.393       .  A
C263        H268   1.083       .  S
C264        C265   1.402       .  A
C264        H269   1.075       .  S
C265        C266   1.403       .  A
C266        H270   1.083       .  S
C271        C272   1.402       .  A
C271        C276   1.396       .  A
C271        H277   1.083       .  S
C272        C273   1.401       .  A
C273        C274   1.392       .  A
C273        H278   1.083       .  S
C274        C275   1.401       .  A
C274        H279   1.074       .  S
C275        C276   1.407       .  A
C276        H280   1.083       .  S
C281        C282   1.401       .  A
C281        C286   1.395       .  A
C281        H287   1.083       .  S
C282        C283   1.404       .  A
C283        C284   1.398       .  A
C283        H288   1.083       .  S
C284        C285   1.408       .  A
C284        H289   1.082       .  S
C285        C286   1.406       .  A
C286        H290   1.075       .  S
C291        C292   1.401       .  A
C291        C296   1.396       .  A
C291        H297   1.083       .  S
C292        C293   1.400       .  A
C293        C294   1.391       .  A
C293        H298   1.084       .  S
C294        C295   1.404       .  A
C294        H299   1.083       .  S
C295        C296   1.404       .  A
C296        H300   1.083       .  S
C301        C302   1.210       .  T
C303        C304   1.211       .  T
C305        C306   1.208       .  T
C307        C308   1.205       .  T
C309        C310   1.211       .  T
C311        C312   1.210       .  T
C313        C314   1.210       .  T
C315        C316   1.210       .  T
C317        C318   1.212       .  T
C319        C320   1.207       .  T
C321        C322   1.210       .  T
C323        C324   1.403       .  A
C323        C328   1.396       .  A
C323        H329   1.083       .  S
C324        C325   1.401       .  A
C325        C326   1.392       .  A
C325        H330   1.083       .  S
C326        C327   1.399       .  A
C326        H331   1.076       .  S
C327        C328   1.404       .  A
C328        H332   1.083       .  S
C333        C334   1.211       .  T
C335        C336   1.403       .  A
C335        C340   1.399       .  A
C335        H341   1.083       .  S
C336        C337   1.402       .  A
C337        C338   1.393       .  A
C337        H342   1.083       .  S
C338        C339   1.404       .  A
C338        H343   1.083       .  S
C339        C340   1.404       .  A
C340        H344   1.083       .  S
C345        C346   1.207       .  T
C347        C348   1.211       .  T
C349        C350   1.205       .  T
C351        C352   1.209       .  T
C353        C354   1.211       .  T
C355        C356   1.210       .  T
C357        C358   1.210       .  T
C359        C360   1.210       .  T
C361        C362   1.207       .  T
C363        C364   1.209       .  T
C365        C366   1.207       .  T
C367        C368   1.211       .  T
C369        C370   1.401       .  A
C369        C374   1.390       .  A
C369        H375   1.083       .  S
C370        C371   1.401       .  A
C371        C372   1.396       .  A
C371        H376   1.083       .  S
C372        C373   1.403       .  A
C372        H377   1.079       .  S
C373        C374   1.403       .  A
C374        H378   1.083       .  S
C379        C380   1.400       .  A
C379        C384   1.391       .  A
C379        H385   1.084       .  S
C380        C381   1.403       .  A
C381        C382   1.397       .  A
C381        H386   1.083       .  S
C382        C383   1.405       .  A
C382        H387   1.083       .  S
C383        C384   1.400       .  A
C384        H388   1.075       .  S
C389        C390   1.404       .  A
C389        C394   1.399       .  A
C389        H395   1.083       .  S
C390        C391   1.402       .  A
C391        C392   1.391       .  A
C391        H396   1.083       .  S
C392        C393   1.401       .  A
C392        H397   1.083       .  S
C393        C394   1.403       .  A
C394        H398   1.083       .  S
C399        C400   1.402       .  A
C399        C404   1.390       .  A
C399        H405   1.074       .  S
C400        C401   1.408       .  A
C401        C402   1.396       .  A
C401        H406   1.082       .  S
C402        C403   1.403       .  A
C402        H407   1.083       .  S
C403        C404   1.401       .  A
C404        H408   1.083       .  S
C409        C410   1.402       .  A
C409        C414   1.395       .  A
C409        H415   1.080       .  S
C410        C411   1.403       .  A
C411        C412   1.389       .  A
C411        H416   1.083       .  S
C412        C413   1.399       .  A
C412        H417   1.084       .  S
C413        C414   1.400       .  A
C414        H418   1.083       .  S
C419        C420   1.403       .  A
C419        C424   1.393       .  A
C419        H425   1.083       .  S
C420        C421   1.404       .  A
C421        C422   1.395       .  A
C421        H426   1.083       .  S
C422        C423   1.402       .  A
C422        H427   1.083       .  S
C423        C424   1.403       .  A
C424        H428   1.083       .  S
