geometry optimzed in LAMMPS
_audit_creation_date              2020-11-30 
_audit_creation_method            'lammps2cif' 
_symmetry_space_group_name_H-M    'P1' 
_symmetry_Int_Tables_number       1 
_symmetry_cell_setting            triclinic 
loop_ 
_symmetry_equiv_pos_as_xyz 
  x,y,z 
_cell_length_a                    50.66551666 
_cell_length_b                    50.610231169315405 
_cell_length_c                    50.60598257385786 
_cell_angle_alpha                 89.98049716650299 
_cell_angle_beta                  90.00756881744606 
_cell_angle_gamma                 89.98519617843898 
loop_ 
_atom_site_label 
_atom_site_type_symbol 
_atom_site_fract_x 
_atom_site_fract_y 
_atom_site_fract_z 
_atom_site_charge 
C1          C  0.75274896  0.79146560  0.76310248     0.79800
N2          N  0.77317490  0.78690112  0.74633209    -0.78500
C3          C  0.78882869  0.76529591  0.74958054     0.82200
N4          N  0.78427872  0.74862772  0.77009395    -0.78500
C5          C  0.76390093  0.75306462  0.78700268     0.82300
N6          N  0.74839038  0.77464296  0.78358893    -0.80200
C7          C  0.26694527  0.81673208  0.27655344     0.79800
N8          N  0.28729498  0.82017141  0.29370253    -0.78500
C9          C  0.29042812  0.80361163  0.31455417     0.82200
N10         N  0.27337509  0.78318935  0.31795425    -0.78500
C11         C  0.25298850  0.77964356  0.30092024     0.82300
N12         N  0.24996882  0.79632508  0.28009482    -0.80200
C13         C  0.77450901  0.76666017  0.31722944     0.79800
N14         N  0.79234958  0.78628086  0.32138334    -0.78500
C15         C  0.81350522  0.78892175  0.30512086     0.82200
N16         N  0.81642528  0.77221661  0.28431080    -0.78500
C17         C  0.79856927  0.75273641  0.27995679     0.82300
N18         N  0.77757552  0.75009969  0.29639723    -0.80200
C19         C  0.28927658  0.26633838  0.25189254     0.79800
N20         N  0.28489552  0.25049537  0.27312157    -0.78500
C21         C  0.26434408  0.25536055  0.28966307     0.82200
N22         N  0.24845621  0.27644244  0.28511566    -0.78500
C23         C  0.25268496  0.29249682  0.26401745     0.82300
N24         N  0.27331651  0.28756528  0.24758416    -0.80200
C25         C  0.80175194  0.31164577  0.28993494     0.79800
N26         N  0.78108652  0.31489662  0.27315805    -0.78500
C27         C  0.77695929  0.29748682  0.25317492     0.82200
N28         N  0.79336610  0.27645725  0.25021890    -0.78500
C29         C  0.81408303  0.27308775  0.26687718     0.82300
N30         N  0.81807168  0.29060519  0.28685108    -0.80200
C31         C  0.75147992  0.27923081  0.80053290     0.79800
N32         N  0.77112495  0.28306332  0.81831103    -0.78500
C33         C  0.78847423  0.30332050  0.81518598     0.82200
N34         N  0.78639854  0.31949075  0.79383985    -0.78500
C35         C  0.76669817  0.31579595  0.77597947     0.82300
N36         N  0.74944053  0.29557311  0.77932902    -0.80200
C37         C  0.30290800  0.81263126  0.79072120     0.79800
N38         N  0.31981134  0.79210452  0.78724770    -0.78500
C39         C  0.31675225  0.77538824  0.76646460     0.82200
N40         N  0.29637945  0.77901550  0.74945665    -0.78500
C41         C  0.27940767  0.79952260  0.75281752     0.82300
N42         N  0.28260407  0.81616058  0.77356886    -0.80200
O43         O  0.05867604  0.01537581  0.99716550    -0.88800
C44         C  0.98803937  0.02268767  0.95954368     0.87300
Mg45       Mg  0.07028203  0.98081970  0.01846920     1.58100
O46         O  0.99360002  0.05818894  0.01855856    -0.88500
O47         O  0.05423665  0.05780162  0.00429689    -0.75800
C48         C  0.96708173  0.95245628  0.09328216     0.92300
O49         O  0.02394010  0.97062408  0.96930586    -0.75700
O50         O  0.98620719  0.94154603  0.08124814    -0.83200
Mg51       Mg  0.04365104  0.00988515  0.95789962     1.58000
C52         C  0.93461936  0.05798568  0.07377675     0.92200
O53         O  0.06440037  0.04731719  0.94264925    -0.81400
H54         H  0.01147824  0.08584474  0.04033326    -0.06800
C55         C  0.95733189  0.98660042  0.02472961     0.87200
O56         O  0.05786735  0.00013909  0.05760957    -0.75900
O57         O  0.00905334  0.03145820  0.96837631    -0.88700
O58         O  0.93861003  0.06269317  0.04936843    -0.81500
C59         C  0.95376410  0.09115453  0.97050197     0.92300
C60         C  0.06006377  0.07189367  0.93917904     0.92200
Mg61       Mg  0.98075103  0.01417228  0.07280584     1.58000
O62         O  0.96111640  0.97668460  0.08966647    -0.81400
O63         O  0.00012938  0.05346787  0.06106532    -0.75700
O64         O  0.97816391  0.08804472  0.96499206    -0.81500
O65         O  0.07925037  0.98632623  0.94590155    -0.83200
O66         O  0.04709990  0.93814143  0.06681937    -0.81500
C67         C  0.00183229  0.06679836  0.03987421     0.86600
O68         O  0.01543676  0.99297721  0.06156363    -0.88700
O69         O  0.96564734  0.00780755  0.03358317    -0.88800
O70         O  0.97081808  0.96546789  0.02605021    -0.75800
Mg71       Mg  0.01537264  0.07026323  0.98455821     1.58000
O72         O  0.94252722  0.07817034  0.98882120    -0.83200
H73         H  0.08621065  0.03660342  0.01584903    -0.06900
O74         O  0.03152314  0.96503354  0.01163661    -0.88500
H75         H  0.01295301  0.93792629  0.98973677    -0.06800
H76         H  0.03641655  0.01123467  0.08959456    -0.06900
C77         C  0.02275787  0.95688851  0.99031083     0.86600
C78         C  0.06733213  0.03646933  0.00588991     0.87200
C79         C  0.03644213  0.00155550  0.07055306     0.87200
H80         H  0.93844194  0.98622571  0.01479781    -0.06900
O81         O  0.96678581  0.02337890  0.97284260    -0.75900
Mg82       Mg  0.00989359  0.95390628  0.04595136     1.58000
H83         H  0.98798263  0.01325367  0.94037893    -0.06900
C84         C  0.09106486  0.96707278  0.95687698     0.92200
O85         O  0.08313490  0.94524097  0.04273578    -0.83200
C86         C  0.07161902  0.93457249  0.06241116     0.92300
O87         O  0.04015871  0.08336763  0.94945715    -0.83200
Mg88       Mg  0.95473284  0.04246683  0.01214546     1.58200
O89         O  0.08733738  0.96117709  0.98110622    -0.81500
O90         O  0.94493707  0.03811415  0.08526635    -0.83200
C91         C  0.21331453  0.24305587  0.85134942     0.79800
N92         N  0.23664865  0.24268028  0.83793574    -0.78500
C93         C  0.25022261  0.26561797  0.83395842     0.82200
N94         N  0.24022107  0.28881455  0.84302970    -0.78500
C95         C  0.21677018  0.28941476  0.85590899     0.82300
N96         N  0.20361825  0.26649570  0.85999889    -0.80200
C97         C  0.84528711  0.21092218  0.24354878     0.79800
N98         N  0.85552004  0.20195236  0.26663206    -0.78500
C99         C  0.85303195  0.21592140  0.28929292     0.82200
N100        N  0.84014667  0.23935615  0.28881504    -0.78500
C101        C  0.82966048  0.24869047  0.26597087     0.82300
N102        N  0.83206356  0.23438034  0.24325657    -0.80200
C103        C  0.24303681  0.84940282  0.21536337     0.79800
N104        N  0.24298999  0.83578224  0.23860274    -0.78500
C105        C  0.26596619  0.83241126  0.25223393     0.82200
N106        N  0.28888697  0.84208063  0.24231312    -0.78500
C107        C  0.28919113  0.85510517  0.21894437     0.82300
N108        N  0.26622836  0.85874150  0.20575853    -0.80200
O109        O  0.03154266  0.51272582  0.59395277    -0.88800
C110        C  0.99631536  0.50804727  0.52152843     0.87300
Mg111      Mg  0.05192920  0.54702596  0.60774942     1.58100
O112        O  0.05553572  0.47269611  0.52709996    -0.88500
O113        O  0.03940468  0.47063175  0.58732973    -0.75800
C114        C  0.12829753  0.58124942  0.50668568     0.92300
O115        O  0.00424505  0.55894187  0.56014894    -0.75700
O116        O  0.11664071  0.59120808  0.52658591    -0.83200
Mg117      Mg  0.99291969  0.51867039  0.57759915     1.58000
C118        C  0.11222664  0.47746816  0.46970110     0.92200
O119        O  0.97741287  0.48034943  0.59581088    -0.81400
H120        H  0.07728651  0.44475041  0.54459417    -0.06800
C121        C  0.06135146  0.54601317  0.49449731     0.87200
O122        O  0.09166363  0.52879225  0.59553388    -0.75900
O123        O  0.00501591  0.49884245  0.54241751    -0.88700
O124        O  0.08789036  0.47189162  0.47272768    -0.81500
C125        C  0.00820997  0.44172413  0.48414737     0.92300
C126        C  0.97389731  0.45610997  0.59001746     0.92200
Mg127      Mg  0.10912225  0.51843927  0.51818789     1.58000
O128        O  0.12510904  0.55710820  0.50019337    -0.81400
O129        O  0.09763957  0.47805534  0.53548695    -0.75700
O130        O  0.00222698  0.44406240  0.50855919    -0.81500
O131        O  0.97906229  0.54048259  0.61384578    -0.83200
O132        O  0.09979683  0.59112064  0.58724715    -0.81500
C133        C  0.07673080  0.46419732  0.53576425     0.86600
O134        O  0.09669120  0.53781002  0.55348185    -0.88700
O135        O  0.07021017  0.52458537  0.50223472    -0.88800
O136        O  0.06215361  0.56662030  0.50881205    -0.75800
Mg137      Mg  0.02090798  0.45973939  0.54728254     1.58000
O138        O  0.02734303  0.45445360  0.47396911    -0.83200
H139        H  0.04990966  0.49019835  0.62070170    -0.06900
O140        O  0.04617629  0.56431718  0.56927648    -0.88500
H141        H  0.02469207  0.59230766  0.55153099    -0.06800
H142        H  0.12435255  0.51904173  0.57451493    -0.06900
C143        C  0.02511075  0.57284444  0.56033395     0.86600
C144        C  0.04038243  0.49126144  0.60161370     0.87200
C145        C  0.10519876  0.52846229  0.57440056     0.87200
H146        H  0.05192677  0.54704222  0.47535631    -0.06900
O147        O  0.00988624  0.50803797  0.50043997    -0.75900
Mg148      Mg  0.08076865  0.57682934  0.54893113     1.58000
H149        H  0.97700146  0.51713436  0.52143255    -0.06900
C150        C  0.98917104  0.55945210  0.62684196     0.92200
O151        O  0.07540112  0.58227168  0.62274917    -0.83200
C152        C  0.09491845  0.59376419  0.61180032     0.92300
O153        O  0.98500022  0.44548855  0.57009898    -0.83200
Mg154      Mg  0.04983268  0.49014094  0.48880864     1.58200
O155        O  0.01353112  0.56557344  0.62455985    -0.81500
O156        O  0.12302907  0.49665674  0.48179234    -0.83200
C157        C  0.82938363  0.34589975  0.34854847     0.79800
N158        N  0.80726521  0.35754468  0.35822470    -0.78500
C159        C  0.78371246  0.35506617  0.34575558     0.82200
N160        N  0.78236594  0.34067139  0.32316916    -0.78500
C161        C  0.80426846  0.32876352  0.31323220     0.82300
N162        N  0.82779375  0.33128181  0.32602495    -0.80200
C163        C  0.22002720  0.71961785  0.32683131     0.79800
N164        N  0.23406521  0.74253155  0.32596222    -0.78500
C165        C  0.23660769  0.75587110  0.30271714     0.82200
N166        N  0.22547372  0.74605871  0.28037126    -0.78500
C167        C  0.21173398  0.72309459  0.28102966     0.82300
N168        N  0.20909360  0.71013736  0.30428799    -0.80200
C169        C  0.84951615  0.73785027  0.71876767     0.79800
N170        N  0.82563242  0.73909486  0.73112940    -0.78500
C171        C  0.81333061  0.76289392  0.73423560     0.82200
N172        N  0.82518505  0.78529793  0.72543195    -0.78500
C173        C  0.84914003  0.78425389  0.71355660     0.82300
N174        N  0.86099386  0.76051779  0.71028421    -0.80200
O175        O  0.03927870  0.05217200  0.59574527    -0.88800
C176        C  0.07358239  0.05844745  0.52318304     0.87300
Mg177      Mg  0.01911508  0.01767880  0.60900832     1.58100
O178        O  0.01475484  0.09401294  0.53052606    -0.88500
O179        O  0.03141326  0.09445161  0.59048613    -0.75800
C180        C  0.94109999  0.98651198  0.50828933     0.92300
O181        O  0.06614347  0.00658265  0.56047492    -0.75700
O182        O  0.95294202  0.97594961  0.52778571    -0.83200
Mg183      Mg  0.07769494  0.04638351  0.57874071     1.58000
C184        C  0.95750045  0.09172260  0.47416083     0.92200
O185        O  0.09312724  0.08398780  0.59764300    -0.81400
H186        H  0.99341542  0.12160081  0.54904394    -0.06800
C187        C  0.00792078  0.02175350  0.49601646     0.87200
O188        O  0.97916658  0.03612754  0.59787500    -0.75900
O189        O  0.06520249  0.06722161  0.54438058    -0.88700
O190        O  0.98190229  0.09690989  0.47716979    -0.81500
C191        C  0.06183888  0.12572404  0.48780981     0.92300
C192        C  0.09645808  0.10848821  0.59312530     0.92200
Mg193      Mg  0.96076464  0.04889438  0.52104932     1.58000
O194        O  0.94442643  0.01076645  0.50225360    -0.81400
O195        O  0.97272159  0.08868721  0.53932971    -0.75700
O196        O  0.06798463  0.12291029  0.51213072    -0.81500
O197        O  0.09216411  0.02373954  0.61424093    -0.83200
O198        O  0.97116616  0.97350867  0.58819803    -0.81500
C199        C  0.99372527  0.10240148  0.53968911     0.86600
O200        O  0.97348402  0.02834010  0.55569656    -0.88700
O201        O  0.99938148  0.04300334  0.50452213    -0.88800
O202        O  0.00721838  0.00075476  0.50976039    -0.75800
Mg203      Mg  0.04954802  0.10633048  0.55059329     1.58000
O204        O  0.04254027  0.11332786  0.47755711    -0.83200
H205        H  0.02134914  0.07390986  0.62340900    -0.06900
O206        O  0.02432131  0.00126950  0.57004342    -0.88500
H207        H  0.04538264  0.97352551  0.55144731    -0.06800
H208        H  0.94614218  0.04646687  0.57766621    -0.06900
C209        C  0.04520605  0.99279817  0.56065429     0.86600
C210        C  0.03061108  0.07341139  0.60417063     0.87200
C211        C  0.96529744  0.03707357  0.57698538     0.87200
H212        H  0.01697413  0.02120988  0.47668001    -0.06900
O213        O  0.05973866  0.05897826  0.50228286    -0.75900
Mg214      Mg  0.98931603  0.98940563  0.54990340     1.58000
H215        H  0.09282723  0.04923001  0.52265224    -0.06900
C216        C  0.08199603  0.00487733  0.62733151     0.92200
O217        O  0.99631057  0.98198639  0.62329240    -0.83200
C218        C  0.97691128  0.97019607  0.61250481     0.92300
O219        O  0.08545772  0.12001153  0.57365452    -0.83200
Mg220      Mg  0.01986750  0.07759392  0.49178493     1.58200
O221        O  0.05757152  0.99901694  0.62527383    -0.81500
O222        O  0.94663132  0.07198602  0.48532541    -0.83200
C223        C  0.21948648  0.82513942  0.71949209     0.79800
N224        N  0.20956991  0.80230582  0.70950830    -0.78500
C225        C  0.22228743  0.77898675  0.71289400     0.82200
N226        N  0.24541550  0.77859689  0.72631293    -0.78500
C227        C  0.25560057  0.80116446  0.73653791     0.82300
N228        N  0.24249570  0.82444650  0.73338318    -0.80200
C229        C  0.23663752  0.22753205  0.35146624     0.79800
N230        N  0.23817817  0.23922753  0.32730045    -0.78500
C231        C  0.26181231  0.24057905  0.31450415     0.82200
N232        N  0.28381309  0.23035661  0.32602502    -0.78500
C233        C  0.28242065  0.21889946  0.35025114     0.82300
N234        N  0.25880694  0.21764522  0.36271550    -0.80200
C235        C  0.84716213  0.84830935  0.33173128     0.79800
N236        N  0.86198174  0.85531367  0.31052204    -0.78500
C237        C  0.86184072  0.84068023  0.28811091     0.82200
N238        N  0.84649960  0.81877265  0.28695346    -0.78500
C239        C  0.83139199  0.81154557  0.30788746     0.82300
N240        N  0.83167917  0.82637437  0.33033234    -0.80200
O241        O  0.47383742  0.52768074  0.05510376    -0.88800
C242        C  0.54628398  0.49262872  0.05802011     0.87300
Mg243      Mg  0.45998007  0.54881826  0.02106949     1.58100
O244        O  0.54036454  0.55104232  0.09475004    -0.88500
O245        O  0.48037379  0.53408707  0.09740620    -0.75800
C246        C  0.56090965  0.62649158  0.98756604     0.92300
O247        O  0.50686799  0.50119981  0.00784151    -0.75700
O248        O  0.54150850  0.61437012  0.97711000    -0.83200
Mg249      Mg  0.49006766  0.48905555  0.04815277     1.58000
C250        C  0.59713791  0.60829287  0.09155722     0.92200
O251        O  0.47278322  0.47198468  0.08628912    -0.81400
H252        H  0.52226185  0.57207877  0.12283822    -0.06800
C253        C  0.57306753  0.55874884  0.02164537     0.87200
O254        O  0.47221988  0.58837064  0.03959244    -0.75900
O255        O  0.52544985  0.50082102  0.06774338    -0.88700
O256        O  0.59447911  0.58369958  0.09616989    -0.81500
C257        C  0.58402515  0.50358977  0.12445094     0.92300
C258        C  0.47935760  0.46755111  0.11018517     0.92200
Mg259      Mg  0.54900384  0.60598958  0.05011562     1.58000
O260        O  0.56696000  0.62325998  0.01184393    -0.81400
O261        O  0.53151157  0.59320425  0.09004067    -0.75700
O262        O  0.55972882  0.49731749  0.12220176    -0.81500
O263        O  0.45336765  0.47583257  0.02688585    -0.83200
O264        O  0.48046656  0.59723517  0.97691383    -0.81500
C265        C  0.53133329  0.57199898  0.10350241     0.86600
O266        O  0.51407824  0.59383660  0.03021509    -0.88700
O267        O  0.56515262  0.56724404  0.04313806    -0.88800
O268        O  0.55881195  0.55956887  0.00102552    -0.75800
Mg269      Mg  0.52080124  0.51581332  0.10726355     1.58000
O270        O  0.59386948  0.52298821  0.11189449    -0.83200
H271        H  0.44687613  0.54491328  0.07824074    -0.06900
O272        O  0.49832420  0.54337731  0.00342220    -0.88500
H273        H  0.51539714  0.52222043  0.97478862    -0.06800
H274        H  0.49299478  0.62122639  0.04929998    -0.06900
C275        C  0.50686657  0.52236831  0.99436898     0.86600
C276        C  0.46607256  0.53568692  0.07683693     0.87200
C277        C  0.49318704  0.60211996  0.03975314     0.87200
H278        H  0.59228392  0.54951673  0.02059611    -0.06900
O279        O  0.56718680  0.50646652  0.05811968    -0.75900
Mg280      Mg  0.51878443  0.57820684  0.99109026     1.58000
H281        H  0.54647597  0.47356151  0.04839513    -0.06900
C282        C  0.43998919  0.48639476  0.00843745     0.92200
O283        O  0.44513125  0.57261368  0.98593456    -0.83200
C284        C  0.45597258  0.59214204  0.97431546     0.92300
O285        O  0.49899977  0.47904524  0.12085120    -0.83200
Mg286      Mg  0.57864729  0.54608729  0.07697317     1.58200
O287        O  0.44256833  0.51077603  0.00242025    -0.81500
O288        O  0.58498324  0.61965861  0.07271903    -0.83200
C289        C  0.34707397  0.34800707  0.83175826     0.79800
N290        N  0.35858086  0.35742491  0.80945371    -0.78500
C291        C  0.35608874  0.34469656  0.78602981     0.82200
N292        N  0.34183700  0.32200463  0.78499735    -0.78500
C293        C  0.33005469  0.31230165  0.80710193     0.82300
N294        N  0.33253020  0.32543892  0.83046546    -0.80200
C295        C  0.71765656  0.32474083  0.22027620     0.79800
N296        N  0.70720542  0.30239580  0.20982011    -0.78500
C297        C  0.71931249  0.27869570  0.21273479     0.82200
N298        N  0.74240106  0.27741953  0.22627459    -0.78500
C299        C  0.75311337  0.29959545  0.23694303     0.82300
N300        N  0.74061710  0.32322530  0.23410082    -0.80200
C301        C  0.73893623  0.72333320  0.84939807     0.79800
N302        N  0.73920504  0.73596542  0.82556981    -0.78500
C303        C  0.76217418  0.73771398  0.81155904     0.82200
N304        N  0.78472407  0.72730135  0.82162306    -0.78500
C305        C  0.78470727  0.71517780  0.84547270     0.82300
N306        N  0.76178923  0.71325568  0.85906681    -0.80200
O307        O  0.09366628  0.53523951  0.01212584    -0.88800
C308        C  0.02250075  0.49901563  0.00481824     0.87300
Mg309      Mg  0.10545632  0.55532717  0.04729541     1.58100
O310        O  0.02829085  0.55883174  0.97037461    -0.88500
O311        O  0.08863232  0.54350725  0.96988686    -0.75800
C312        C  0.00268783  0.63028960  0.07885417     0.92300
O313        O  0.05897825  0.50655968  0.05671515    -0.75700
O314        O  0.02220878  0.61842399  0.08930517    -0.83200
Mg315      Mg  0.07825605  0.49608957  0.01698756     1.58000
C316        C  0.97007580  0.61456696  0.97303720     0.92200
O317        O  0.09818460  0.48172793  0.97889017    -0.81400
H318        H  0.04659941  0.58118525  0.94344417    -0.06800
C319        C  0.99258685  0.56364930  0.04233327     0.87200
O320        O  0.09352998  0.59522699  0.02917106    -0.75900
O321        O  0.04353896  0.50788000  0.99616860    -0.88700
O322        O  0.97382834  0.59025100  0.96782025    -0.81500
C323        C  0.98675145  0.51093984  0.93791297     0.92300
C324        C  0.09290510  0.47842230  0.95447734     0.92200
Mg325      Mg  0.01659393  0.61207488  0.01620262     1.58000
O326        O  0.99697241  0.62750706  0.05444275    -0.81400
O327        O  0.03568029  0.60109129  0.97648085    -0.75700
O328        O  0.01116801  0.50525093  0.94072208    -0.81500
O329        O  0.11405903  0.48249713  0.04019892    -0.83200
O330        O  0.08290884  0.60239784  0.09155905    -0.81500
C331        C  0.03694803  0.58028568  0.96247525     0.86600
O332        O  0.05121564  0.59988796  0.03686776    -0.88700
O333        O  0.00125653  0.57277576  0.02139744    -0.88800
O334        O  0.00597395  0.56420257  0.06353925    -0.75800
Mg335      Mg  0.04922096  0.52454727  0.95753594     1.58000
O336        O  0.97618943  0.53010152  0.95025410    -0.83200
H337        H  0.12103516  0.55420425  0.99090326    -0.06900
O338        O  0.06650229  0.54876937  0.06283731    -0.88500
H339        H  0.04814628  0.52646720  0.08978229    -0.06800
H340        H  0.07264300  0.62796255  0.01919932    -0.06900
C341        C  0.05779465  0.52734388  0.07074831     0.86600
C342        C  0.10206082  0.54443768  0.99109036     0.87200
C343        C  0.07235230  0.60865813  0.02834871     0.87200
H344        H  0.97347102  0.55416120  0.04238261    -0.06900
O345        O  0.00134568  0.51247982  0.00439930    -0.75900
Mg346      Mg  0.04543138  0.58304284  0.07536047     1.58000
H347        H  0.02231241  0.47963486  0.01380714    -0.06900
C348        C  0.12529922  0.49291258  0.06013210     0.92200
O349        O  0.11858021  0.57803310  0.08355337    -0.83200
C350        C  0.10728498  0.59730624  0.09507972     0.92300
O351        O  0.07294531  0.48918666  0.94359534    -0.83200
Mg352      Mg  0.98961215  0.55242604  0.98642732     1.58200
O353        O  0.12172925  0.51712864  0.06616059    -0.81500
O354        O  0.98087903  0.62569597  0.99282653    -0.83200
C355        C  0.82339372  0.72084280  0.21891840     0.79800
N356        N  0.82297331  0.73417313  0.24226719    -0.78500
C357        C  0.79983165  0.73700870  0.25569679     0.82200
N358        N  0.77714614  0.72689493  0.24553448    -0.78500
C359        C  0.77740392  0.71391282  0.22210937     0.82300
N360        N  0.80055357  0.71097918  0.20912664    -0.80200
C361        C  0.22287634  0.35446823  0.23797564     0.79800
N362        N  0.23557117  0.33069712  0.23863257    -0.78500
C363        C  0.23765429  0.31726108  0.26192922     0.82200
N364        N  0.22730754  0.32777072  0.28434695    -0.78500
C365        C  0.21492287  0.35148649  0.28385564     0.82300
N366        N  0.21280103  0.36458095  0.26064261    -0.80200
C367        C  0.84657263  0.32945988  0.85149758     0.79800
N368        N  0.85418736  0.30734871  0.86466169    -0.78500
C369        C  0.84065444  0.28438568  0.86226093     0.82200
N370        N  0.81903721  0.28362779  0.84652643    -0.78500
C371        C  0.81112429  0.30545220  0.83310276     0.82300
N372        N  0.82501810  0.32838580  0.83541976    -0.80200
O373        O  0.55588046  0.96954182  0.02885551    -0.88800
C374        C  0.56062088  0.04134891  0.99348262     0.87300
Mg375      Mg  0.52107182  0.95647752  0.04850847     1.58100
O376        O  0.59433624  0.03676335  0.05366858    -0.88500
O377        O  0.59753014  0.97628284  0.03842922    -0.75800
C378        C  0.48415704  0.05745623  0.12404804     0.92300
O379        O  0.51028976  0.00289997  0.99988995    -0.75700
O380        O  0.47489899  0.03775481  0.11151408    -0.83200
Mg381      Mg  0.55086627  0.98541026  0.98981770     1.58000
C382        C  0.58903072  0.09502480  0.10943438     0.92200
O383        O  0.58969288  0.96741606  0.97543070    -0.81400
H384        H  0.62206841  0.02007940  0.07629960    -0.06800
C385        C  0.52122075  0.06996037  0.05778695     0.87200
O386        O  0.53830771  0.96917445  0.08864495    -0.75900
O387        O  0.57008223  0.02063261  0.00233517    -0.88700
O388        O  0.59461369  0.09145397  0.08514365    -0.81500
C389        C  0.62587077  0.07910642  0.00581122     0.92300
C390        C  0.61406138  0.97313128  0.97297098     0.92200
Mg391      Mg  0.54781058  0.04674981  0.10649099     1.58000
O392        O  0.50834276  0.06430074  0.12190559    -0.81400
O393        O  0.58848454  0.02958072  0.09596845    -0.75700
O394        O  0.62413280  0.05448414  0.00068282    -0.81500
O395        O  0.52945505  0.94900152  0.97556581    -0.83200
O396        O  0.47670712  0.97731975  0.09542185    -0.81500
C397        C  0.60259317  0.02874903  0.07522984     0.86600
O398        O  0.52903887  0.01124221  0.09363151    -0.88700
O399        O  0.54236241  0.06215897  0.06718971    -0.88800
O400        O  0.50070082  0.05555931  0.05777379    -0.75800
Mg401      Mg  0.60858685  0.01613357  0.01974311     1.58000
O402        O  0.61288023  0.08963071  0.02458989    -0.83200
H403        H  0.57766690  0.94287815  0.04820666    -0.06900
O404        O  0.50439314  0.99502040  0.04202343    -0.88500
H405        H  0.47669801  0.01213783  0.01966727    -0.06800
H406        H  0.54745453  0.99019281  0.12154242    -0.06900
C407        C  0.49614567  0.00339033  0.02060035     0.86600
C408        C  0.57696374  0.96192658  0.03855490     0.87200
C409        C  0.53835198  0.99031902  0.10221947     0.87200
H410        H  0.52043862  0.08917925  0.04848720    -0.06900
O411        O  0.55989788  0.06246231  0.00700636    -0.75900
Mg412      Mg  0.49063055  0.01543651  0.07624121     1.58000
H413        H  0.55180693  0.04121684  0.97402630    -0.06900
C414        C  0.51002081  0.93668058  0.98562733     0.92200
O415        O  0.48510385  0.94183809  0.07087514    -0.83200
C416        C  0.47398982  0.95281096  0.09057352     0.92300
O417        O  0.62428752  0.99285039  0.98476597    -0.83200
Mg418      Mg  0.57704679  0.07495898  0.04700956     1.58200
O419        O  0.50356596  0.93958167  0.00984709    -0.81500
O420        O  0.56951401  0.08353647  0.12039835    -0.83200
C421        C  0.71767219  0.21863137  0.82468575     0.79800
N422        N  0.73163359  0.24168287  0.82473035    -0.78500
C423        C  0.73509751  0.25534506  0.80173817     0.82200
N424        N  0.72503906  0.24569099  0.77886256    -0.78500
C425        C  0.71158780  0.22259283  0.77856297     0.82300
N426        N  0.70795992  0.20932352  0.80150413    -0.80200
C427        C  0.34848669  0.23640947  0.22065924     0.79800
N428        N  0.32501568  0.23874045  0.23360248    -0.78500
C429        C  0.31344762  0.26297585  0.23620752     0.82200
N430        N  0.32558082  0.28476040  0.22619502    -0.78500
C431        C  0.34916146  0.28257766  0.21367554     0.82300
N432        N  0.36024957  0.25841812  0.21101374    -0.80200
C433        C  0.32860113  0.84511646  0.85102868     0.79800
N434        N  0.30642657  0.85733860  0.85986394    -0.78500
C435        C  0.28343726  0.85570920  0.84622087     0.82200
N436        N  0.28272561  0.84163915  0.82342283    -0.78500
C437        C  0.30463329  0.82904848  0.81449482     0.82300
N438        N  0.32755056  0.83072888  0.82836056    -0.80200
O439        O  0.53502041  0.51243838  0.47059105    -0.88800
C440        C  0.57050465  0.50573838  0.54225267     0.87300
Mg441      Mg  0.51388851  0.54697113  0.45872368     1.58100
O442        O  0.51208618  0.46920016  0.53582008    -0.88500
O443        O  0.52782108  0.46996444  0.47524841    -0.75800
C444        C  0.43609915  0.57535410  0.56054006     0.92300
O445        O  0.56136492  0.55774333  0.50650104    -0.75700
O446        O  0.44808591  0.58602727  0.54121662    -0.83200
Mg447      Mg  0.57361599  0.51867497  0.48710918     1.58000
C448        C  0.45633075  0.47034169  0.59535511     0.92200
O449        O  0.59042399  0.48193493  0.46736645    -0.81400
H450        H  0.49065761  0.44136282  0.51779270    -0.06800
C451        C  0.50413150  0.54104567  0.57189280     0.87200
O452        O  0.47447436  0.52739852  0.47026990    -0.75900
O453        O  0.56207139  0.49691927  0.52110728    -0.88700
O454        O  0.48067807  0.46561122  0.59116703    -0.81500
C455        C  0.56083662  0.43817967  0.57702296     0.92300
C456        C  0.59448952  0.45747648  0.47157782     0.92200
Mg457      Mg  0.45700716  0.51312571  0.54757698     1.58000
O458        O  0.43964916  0.55109831  0.56663372    -0.81400
O459        O  0.46961153  0.47366948  0.52878214    -0.75700
O460        O  0.56638757  0.44100285  0.55254931    -0.81500
O461        O  0.58694295  0.54236199  0.45197887    -0.83200
O462        O  0.46512805  0.58955659  0.48092108    -0.81500
C463        C  0.49091238  0.46046255  0.52735076     0.86600
O464        O  0.46878336  0.53428370  0.51267588    -0.88700
O465        O  0.49595797  0.51977552  0.56312603    -0.88800
O466        O  0.50290561  0.56219281  0.55844308    -0.75800
Mg467      Mg  0.54692656  0.45771476  0.51458012     1.58000
O468        O  0.54157715  0.45026146  0.58771264    -0.83200
H469        H  0.51687903  0.49094342  0.44287735    -0.06900
O470        O  0.51924836  0.56236923  0.49798591    -0.88500
H471        H  0.54006733  0.59003237  0.51696305    -0.06800
H472        H  0.44193824  0.51564743  0.49051551    -0.06900
C473        C  0.54012035  0.57103117  0.50720707     0.86600
C474        C  0.52649625  0.49122804  0.46194760     0.87200
C475        C  0.46079090  0.52562065  0.49126259     0.87200
H476        H  0.51334193  0.54148529  0.59115992    -0.06900
O477        O  0.55687042  0.50497230  0.56326584    -0.75900
Mg478      Mg  0.48426504  0.57343507  0.51864511     1.58000
H479        H  0.58957166  0.51531736  0.54261429    -0.06900
C480        C  0.57621905  0.56154476  0.43983995     0.92200
O481        O  0.49028542  0.58269822  0.44554915    -0.83200
C482        C  0.47064947  0.59371814  0.45670768     0.92300
O483        O  0.58307450  0.44521946  0.49040824    -0.83200
Mg484      Mg  0.51771854  0.48552463  0.57468540     1.58200
O485        O  0.55175536  0.56695098  0.44260904    -0.81500
O486        O  0.44440893  0.48939401  0.58395603    -0.83200
C487        C  0.71324034  0.74211674  0.34873255     0.79800
N488        N  0.73651799  0.74254021  0.33532604    -0.78500
C489        C  0.75031011  0.76550618  0.33299984     0.82200
N490        N  0.74055707  0.78808962  0.34364298    -0.78500
C491        C  0.71714982  0.78797206  0.35662956     0.82300
N492        N  0.70374588  0.76493545  0.35913356    -0.80200
C493        C  0.34862671  0.71454428  0.74092670     0.79800
N494        N  0.33526830  0.73789251  0.74160311    -0.78500
C495        C  0.33289604  0.75140079  0.76476720     0.82200
N496        N  0.34347581  0.74130087  0.78723908    -0.78500
C497        C  0.35635169  0.71782853  0.78687309     0.82300
N498        N  0.35885904  0.70469116  0.76367752    -0.80200
C499        C  0.74230655  0.34798053  0.71487503     0.79800
N500        N  0.74272377  0.33468288  0.73824243    -0.78500
C501        C  0.76585848  0.33149177  0.75159271     0.82200
N502        N  0.78866002  0.34119679  0.74126092    -0.78500
C503        C  0.78847466  0.35411808  0.71773196     0.82300
N504        N  0.76525481  0.35744317  0.70486591    -0.80200
O505        O  0.55271617  0.09958681  0.53692802    -0.88800
C506        C  0.56093234  0.02743213  0.57108638     0.87300
Mg507      Mg  0.51726196  0.11143215  0.51753786     1.58100
O508        O  0.59521043  0.03508506  0.51145852    -0.88500
O509        O  0.59482057  0.09507738  0.52787693    -0.75800
C510        C  0.48674613  0.01016738  0.43988649     0.92300
O511        O  0.50860570  0.06356798  0.56522777    -0.75700
O512        O  0.47621590  0.02898988  0.45277933    -0.83200
Mg513      Mg  0.54822698  0.08287193  0.57568336     1.58000
C514        C  0.59350876  0.97831010  0.45444587     0.92200
O515        O  0.58591710  0.10256660  0.59020919    -0.81400
H516        H  0.62183794  0.05431058  0.48954363    -0.06800
C517        C  0.52403724  0.99853087  0.50602123     0.87200
O518        O  0.53504052  0.10072929  0.47710539    -0.75900
O519        O  0.56929693  0.04879854  0.56269388    -0.88700
O520        O  0.59868103  0.98157944  0.47884966    -0.81500
C521        C  0.62806367  0.99298127  0.55886964     0.92300
C522        C  0.61049127  0.09805158  0.59288219     0.92200
Mg523      Mg  0.54946251  0.02427307  0.45803953     1.58000
O524        O  0.51128194  0.00469659  0.44202153    -0.81400
O525        O  0.58889319  0.04359638  0.46943305    -0.75700
O526        O  0.62504937  0.01734327  0.56472644    -0.81500
O527        O  0.52507534  0.11812552  0.59052805    -0.83200
O528        O  0.47266295  0.08927754  0.47057885    -0.81500
C529        C  0.60294182  0.04441412  0.49022367     0.86600
O530        O  0.52824334  0.05834794  0.47136163    -0.88700
O531        O  0.54474749  0.00766384  0.49689932    -0.88800
O532        O  0.50274509  0.01175760  0.50617364    -0.75800
Mg533      Mg  0.60781085  0.05545873  0.54600302     1.58000
O534        O  0.61603438  0.98253750  0.53943105    -0.83200
H535        H  0.57338346  0.12754383  0.51818858    -0.06900
O536        O  0.50246878  0.07201192  0.52324274    -0.88500
H537        H  0.47556964  0.05311658  0.54511904    -0.06800
H538        H  0.54516113  0.08094454  0.44373398    -0.06900
C539        C  0.49456651  0.06281797  0.54445287     0.86600
C540        C  0.57351909  0.10835847  0.52758947     0.87200
C541        C  0.53622261  0.07991923  0.46310491     0.87200
H542        H  0.52429336  0.97913115  0.51496864    -0.06900
O543        O  0.56162130  0.00657181  0.55716554    -0.75900
Mg544      Mg  0.49005881  0.05153889  0.48857177     1.58000
H545        H  0.55193883  0.02669620  0.59044462    -0.06900
C546        C  0.50511838  0.12973937  0.58062719     0.92200
O547        O  0.48049442  0.12445036  0.49577108    -0.83200
C548        C  0.46867466  0.11342077  0.47652955     0.92300
O549        O  0.62178635  0.07875264  0.58141092    -0.83200
Mg550      Mg  0.57981810  0.99604564  0.51704297     1.58200
O551        O  0.49880310  0.12679969  0.55638891    -0.81500
O552        O  0.57357712  0.98912566  0.44351514    -0.83200
C553        C  0.35027133  0.82955745  0.34776433     0.79800
N554        N  0.32724402  0.82868190  0.33392907    -0.78500
C555        C  0.31421229  0.80534725  0.33095607     0.82200
N556        N  0.32444986  0.78289146  0.34146937    -0.78500
C557        C  0.34761723  0.78346520  0.35488030     0.82300
N558        N  0.36029231  0.80685178  0.35795413    -0.80200
C559        C  0.32436002  0.21724835  0.72156381     0.79800
N560        N  0.30172906  0.20631761  0.71233901    -0.78500
C561        C  0.27849637  0.20953692  0.72514912     0.82200
N562        N  0.27794068  0.22382923  0.74779013    -0.78500
C563        C  0.30034520  0.23499699  0.75739878     0.82300
N564        N  0.32357071  0.23193712  0.74411760    -0.80200
C565        C  0.72322862  0.85434541  0.73917520     0.79800
N566        N  0.71452268  0.86446982  0.76242850    -0.78500
C567        C  0.71754759  0.85114422  0.78544386     0.82200
N568        N  0.72935917  0.82712674  0.78511367    -0.78500
C569        C  0.73839679  0.81665407  0.76212984     0.82300
N570        N  0.73552566  0.83036831  0.73909988    -0.80200
C571        C  0.29866370  0.25171916  0.78104320     0.79800
N572        N  0.27779575  0.24909958  0.79775139    -0.78500
C573        C  0.27453098  0.26619207  0.81815743     0.82200
N574        N  0.29203901  0.28623757  0.82156661    -0.78500
C575        C  0.31294011  0.28898677  0.80501008     0.82300
N576        N  0.31605936  0.27181486  0.78460599    -0.80200
C577        C  0.64544661  0.97610008  0.57544311    -0.03800
C578        C  0.65970466  0.98688505  0.59673773    -0.09500
C579        C  0.67449865  0.97052778  0.61344747    -0.17200
C580        C  0.67529956  0.94319645  0.60912878     0.24900
C581        C  0.66169537  0.93237131  0.58765073    -0.18900
C582        C  0.64695190  0.94867280  0.57088380    -0.07800
C583        C  0.68848109  0.92615235  0.62780308    -0.14200
C584        C  0.69767373  0.91258983  0.64516033    -0.14000
C585        C  0.70606128  0.89819311  0.66829237     0.24800
C586        C  0.71723470  0.87290065  0.66637862    -0.19400
C587        C  0.72357538  0.85866498  0.68935568    -0.07800
C588        C  0.71863898  0.86957191  0.71446991    -0.03900
C589        C  0.70798369  0.89525223  0.71599398    -0.09200
C590        C  0.70175972  0.90934915  0.69315742    -0.16900
H591        H  0.65901787  0.00787709  0.60081540     0.11300
H592        H  0.68482805  0.97913532  0.63009858     0.10600
H593        H  0.66200554  0.91124826  0.58418689     0.10500
H594        H  0.63621675  0.93966914  0.55472379     0.11000
H595        H  0.72061045  0.86402343  0.64720091     0.11100
H596        H  0.73173944  0.83898462  0.68746297     0.11100
H597        H  0.70401609  0.90444627  0.73489687     0.11200
H598        H  0.69311805  0.92886101  0.69493085     0.10000
C599        C  0.34924375  0.21300473  0.70660979    -0.03800
C600        C  0.37339746  0.22405449  0.71482812    -0.09500
C601        C  0.39662282  0.21917344  0.70047486    -0.17200
C602        C  0.39588704  0.20326771  0.67779485     0.24900
C603        C  0.37193435  0.19249816  0.66943496    -0.18900
C604        C  0.34887217  0.19729168  0.68362820    -0.07800
C605        C  0.41944809  0.19695243  0.66314074    -0.14200
C606        C  0.43698957  0.18881459  0.64920357    -0.14000
C607        C  0.45542250  0.17625229  0.63150840     0.24800
C608        C  0.44873136  0.17278638  0.60488559    -0.19400
C609        C  0.46519845  0.15822566  0.58814622    -0.07800
C610        C  0.48859175  0.14677618  0.59785127    -0.03900
C611        C  0.49550065  0.15097469  0.62449230    -0.09200
C612        C  0.47899639  0.16557222  0.64118753    -0.16900
H613        H  0.37438161  0.23626535  0.73236296     0.11300
H614        H  0.41510660  0.22758738  0.70716586     0.10600
H615        H  0.37110057  0.18012198  0.65197788     0.10500
H616        H  0.33074770  0.18842577  0.67657569     0.11000
H617        H  0.43043683  0.18079538  0.59720443     0.11100
H618        H  0.45927764  0.15542345  0.56777688     0.11100
H619        H  0.51339634  0.14253578  0.63260324     0.11200
H620        H  0.48431256  0.16797188  0.66178506     0.10000
C621        C  0.36473754  0.85471844  0.35178258    -0.03800
C622        C  0.39041489  0.85421924  0.36240357    -0.09500
C623        C  0.40394658  0.87763140  0.36751627    -0.17200
C624        C  0.39214470  0.90200053  0.36218254     0.24900
C625        C  0.36675710  0.90286920  0.35120825    -0.18900
C626        C  0.35312934  0.87932331  0.34592427    -0.07800
C627        C  0.40599738  0.92573644  0.36944700    -0.14200
C628        C  0.41946003  0.94332933  0.37818356    -0.14000
C629        C  0.43668162  0.96167112  0.39141986     0.24800
C630        C  0.42614357  0.98329711  0.40498883    -0.19400
C631        C  0.44255219  0.99942112  0.42024977    -0.07800
C632        C  0.46977493  0.99405147  0.42226489    -0.03900
C633        C  0.48029133  0.97265257  0.40798456    -0.09200
C634        C  0.46382158  0.95656604  0.39270697    -0.16900
H635        H  0.40007597  0.83570136  0.36703507     0.11300
H636        H  0.42353932  0.87671499  0.37607084     0.10600
H637        H  0.35737705  0.92166757  0.34711913     0.10500
H638        H  0.33339025  0.88039179  0.33779195     0.11000
H639        H  0.40514742  0.98731586  0.40431457     0.11100
H640        H  0.43378245  0.01575510  0.43092054     0.13500
H641        H  0.50112551  0.96799111  0.40904793     0.11200
H642        H  0.47215706  0.93973457  0.38244071     0.10000
C643        C  0.70554410  0.81283671  0.36668235    -0.03800
C644        C  0.71733591  0.83737411  0.36099355    -0.09500
C645        C  0.70543699  0.86087530  0.36928634    -0.17200
C646        C  0.68170134  0.86010638  0.38337176     0.24900
C647        C  0.67007204  0.83581874  0.38950370    -0.18900
C648        C  0.68186867  0.81233275  0.38121550    -0.07800
C649        C  0.66909585  0.88411207  0.39165446    -0.14200
C650        C  0.65747433  0.90313704  0.39989587    -0.14000
C651        C  0.64275959  0.92410397  0.41203660     0.24800
C652        C  0.65041351  0.93333198  0.43688707    -0.19400
C653        C  0.63472164  0.95157111  0.45026325    -0.07800
C654        C  0.61105602  0.96082754  0.43896644    -0.03900
C655        C  0.60399984  0.95221407  0.41350641    -0.09200
C656        C  0.61975499  0.93383146  0.40015938    -0.16900
H657        H  0.73552169  0.83846984  0.34981176     0.11300
H658        H  0.71462722  0.87961384  0.36454675     0.10600
H659        H  0.65175316  0.83504078  0.40052898     0.10500
H660        H  0.67228492  0.79381966  0.38600740     0.11000
H661        H  0.66814757  0.92587185  0.44626251     0.11100
H662        H  0.64087018  0.95796758  0.46973483     0.11100
H663        H  0.58594428  0.95901357  0.40428675     0.11200
H664        H  0.61363395  0.92668336  0.38093468     0.10000
C665        C  0.35187555  0.69939229  0.71601138    -0.03800
C666        C  0.36378488  0.67424919  0.71668148    -0.09500
C667        C  0.36790861  0.66000552  0.69348257    -0.17200
C668        C  0.36025323  0.67051481  0.66913550     0.24900
C669        C  0.34802820  0.69534624  0.66812064    -0.18900
C670        C  0.34378049  0.70970945  0.69145905    -0.07800
C671        C  0.36636860  0.65596570  0.64545899    -0.14200
C672        C  0.37436541  0.64214327  0.62776826    -0.14000
C673        C  0.38709093  0.62471643  0.60922182     0.24800
C674        C  0.39832336  0.63485009  0.58610302    -0.19400
C675        C  0.41359679  0.61856454  0.56984388    -0.07800
C676        C  0.41796760  0.59188710  0.57656651    -0.03900
C677        C  0.40577114  0.58164852  0.59934222    -0.09200
C678        C  0.39050028  0.59799325  0.61557250    -0.16900
H679        H  0.37019694  0.66554756  0.73514703     0.11300
H680        H  0.37745977  0.64086688  0.69451863     0.10600
H681        H  0.34211884  0.70373120  0.64933202     0.10500
H682        H  0.33456256  0.72897364  0.69023578     0.11000
H683        H  0.39595667  0.65552305  0.58105617     0.11100
H684        H  0.42254545  0.62708091  0.55237646     0.11100
H685        H  0.40863908  0.56122475  0.60504754     0.11200
H686        H  0.38203039  0.58997331  0.63352310     0.10000
C687        C  0.35975171  0.75875512  0.36482190    -0.03800
C688        C  0.38471472  0.75938701  0.37701132    -0.09500
C689        C  0.39674554  0.73608341  0.38549422    -0.17200
C690        C  0.38406522  0.71181250  0.38197867     0.24900
C691        C  0.35914206  0.71089704  0.37009365    -0.18900
C692        C  0.34703451  0.73423172  0.36153085    -0.07800
C693        C  0.39666103  0.68808384  0.39114980    -0.14200
C694        C  0.40835715  0.66956208  0.40043479    -0.14000
C695        C  0.42306885  0.64925980  0.41374654     0.24800
C696        C  0.41727236  0.64338614  0.44009922    -0.19400
C697        C  0.43253654  0.62504783  0.45389918    -0.07800
C698        C  0.45392500  0.61231514  0.44152511    -0.03900
C699        C  0.45940711  0.61807461  0.41486521    -0.09200
C700        C  0.44405678  0.63648482  0.40107561    -0.16900
H701        H  0.39511384  0.77785825  0.37984444     0.11300
H702        H  0.41599246  0.73699997  0.39479331     0.10600
H703        H  0.34910462  0.69218879  0.36741691     0.10500
H704        H  0.32782448  0.73302779  0.35223099     0.11000
H705        H  0.40118378  0.65330629  0.45013309     0.11100
H706        H  0.42776032  0.62112481  0.47438591     0.11100
H707        H  0.47573210  0.60864234  0.40477973     0.11200
H708        H  0.44880433  0.64104818  0.38070498     0.10000
C709        C  0.59283713  0.57806671  0.42227869    -0.03800
C710        C  0.58205714  0.59983319  0.40876182    -0.09500
C711        C  0.59817350  0.61609658  0.39329998    -0.17200
C712        C  0.62521000  0.61079510  0.39106506     0.24900
C713        C  0.63601342  0.58888339  0.40396372    -0.18900
C714        C  0.61995893  0.57258520  0.41941143    -0.07800
C715        C  0.64213592  0.62917340  0.37752630    -0.14200
C716        C  0.65556044  0.64675216  0.36872118    -0.14000
C717        C  0.66968289  0.67042927  0.36185244     0.24800
C718        C  0.69351848  0.66951514  0.34783408    -0.19400
C719        C  0.70765761  0.69285678  0.34301379    -0.07800
C720        C  0.69808894  0.71728671  0.35230190    -0.03900
C721        C  0.67385290  0.71786569  0.36589866    -0.09200
C722        C  0.65984878  0.69466442  0.37062186    -0.16900
H723        H  0.56129162  0.60459224  0.41051014     0.11300
H724        H  0.58965554  0.63316998  0.38358493     0.10600
H725        H  0.65694925  0.58473422  0.40257666     0.10500
H726        H  0.62891983  0.55597525  0.42949530     0.11000
H727        H  0.70134862  0.65080071  0.34102015     0.11100
H728        H  0.72620139  0.69171720  0.33244431     0.11100
H729        H  0.66576097  0.73623422  0.37328839     0.11200
H730        H  0.64147430  0.69559697  0.38155047     0.10000
C731        C  0.57742485  0.42078648  0.59378736    -0.03800
C732        C  0.59832607  0.40611002  0.58284274    -0.09500
C733        C  0.61488827  0.39109141  0.59911523    -0.17200
C734        C  0.61077025  0.39050900  0.62648043     0.24900
C735        C  0.58966007  0.40450751  0.63745459    -0.18900
C736        C  0.57305073  0.41946565  0.62125276    -0.07800
C737        C  0.62954170  0.37753787  0.64345938    -0.14200
C738        C  0.64717618  0.36909634  0.65706486    -0.14000
C739        C  0.67070712  0.36223193  0.67145927     0.24800
C740        C  0.66947070  0.34992002  0.69624663    -0.19400
C741        C  0.69273178  0.34483769  0.71042732    -0.07800
C742        C  0.71742259  0.35217177  0.69995902    -0.03900
C743        C  0.71829264  0.36422292  0.67488123    -0.09200
C744        C  0.69517001  0.36917855  0.66082275    -0.16900
H745        H  0.60220217  0.40663050  0.56180589     0.11300
H746        H  0.63130999  0.38047843  0.59042950     0.10600
H747        H  0.58641692  0.40439390  0.65861793     0.10500
H748        H  0.55716223  0.43050048  0.63036463     0.11000
H749        H  0.65058422  0.34456435  0.70472571     0.11100
H750        H  0.69135819  0.33554709  0.72965295     0.11100
H751        H  0.73686653  0.37008782  0.66607911     0.11200
H752        H  0.69637029  0.37879540  0.64171985     0.10000
C753        C  0.70231623  0.21112596  0.75338304    -0.03800
C754        C  0.68957144  0.18643817  0.75321205    -0.09500
C755        C  0.68179252  0.17496054  0.72944563    -0.17200
C756        C  0.68660408  0.18794812  0.70556193     0.24900
C757        C  0.69904385  0.21259911  0.70541914    -0.18900
C758        C  0.70689687  0.22416150  0.72922562    -0.07800
C759        C  0.67802056  0.17595164  0.68144275    -0.14200
C760        C  0.66869068  0.16424111  0.66304742    -0.14000
C761        C  0.65479610  0.14889875  0.64380432     0.24800
C762        C  0.66780161  0.12914479  0.62951566    -0.19400
C763        C  0.65348802  0.11264327  0.61264314    -0.07800
C764        C  0.62601694  0.11576738  0.61003187    -0.03900
C765        C  0.61328520  0.13602900  0.62417091    -0.09200
C766        C  0.62760234  0.15242303  0.64097969    -0.16900
H767        H  0.68575112  0.17583863  0.77140313     0.11300
H768        H  0.67201370  0.15591744  0.72969617     0.10600
H769        H  0.70267974  0.22283619  0.68696949     0.10500
H770        H  0.71667883  0.24317323  0.72867436     0.11000
H771        H  0.68885791  0.12618047  0.63179990     0.11100
H772        H  0.66384370  0.09730087  0.60192421     0.11100
H773        H  0.59217451  0.13900224  0.62258800     0.11200
H774        H  0.61736691  0.16752544  0.65218199     0.10000
C775        C  0.49419818  0.91891877  0.96856001    -0.03800
C776        C  0.49931960  0.91724202  0.94124208    -0.09500
C777        C  0.48312254  0.90203751  0.92482210    -0.17200
C778        C  0.46174354  0.88818756  0.93549811     0.24900
C779        C  0.45696921  0.88910513  0.96271746    -0.18900
C780        C  0.47307010  0.90433366  0.97916021    -0.07800
C781        C  0.44321270  0.87502106  0.91847359    -0.14200
C782        C  0.42526519  0.86618894  0.90559211    -0.14000
C783        C  0.40127329  0.85871537  0.89238864     0.24800
C784        C  0.37712288  0.86471491  0.90431206    -0.19400
C785        C  0.35351907  0.85960104  0.89111143    -0.07800
C786        C  0.35368468  0.84834566  0.86569554    -0.03900
C787        C  0.37804714  0.84160551  0.85412242    -0.09200
C788        C  0.40174179  0.84689131  0.86738010    -0.16900
H789        H  0.51541345  0.92821623  0.93242534     0.11300
H790        H  0.48686140  0.90164619  0.90374561     0.10600
H791        H  0.44033751  0.87861369  0.97114977     0.10500
H792        H  0.46860652  0.90512673  0.00007109     0.11000
H793        H  0.37654372  0.87388884  0.92365266     0.11100
H794        H  0.33514994  0.86488158  0.90069125     0.11100
H795        H  0.37884199  0.83297703  0.83456264     0.11200
H796        H  0.42036186  0.84224877  0.85793952     0.10000
C797        C  0.63055105  0.95645360  0.95551014    -0.03800
C798        C  0.65725770  0.96255278  0.95084734    -0.09500
C799        C  0.67222120  0.94724346  0.93334140    -0.17200
C800        C  0.66068580  0.92565619  0.92046265     0.24900
C801        C  0.63434100  0.91917165  0.92539895    -0.18900
C802        C  0.61937791  0.93439776  0.94279339    -0.07800
C803        C  0.67499253  0.91116049  0.90071420    -0.14200
C804        C  0.68451924  0.89958519  0.88225225    -0.14000
C805        C  0.69326395  0.88724897  0.85824259     0.24800
C806        C  0.70546059  0.86243668  0.85865154    -0.19400
C807        C  0.71322447  0.85046515  0.83496413    -0.07800
C808        C  0.70881653  0.86322645  0.81061847    -0.03900
C809        C  0.69641133  0.88810711  0.81052946    -0.09200
C810        C  0.68870288  0.89997710  0.83415971    -0.16900
H811        H  0.66644088  0.97937376  0.96034320     0.11300
H812        H  0.69257972  0.95252764  0.92948292     0.10600
H813        H  0.62518527  0.90261484  0.91538568     0.10500
H814        H  0.59891894  0.92907636  0.94595695     0.11000
H815        H  0.70891265  0.85234865  0.87721890     0.11100
H816        H  0.72273704  0.83131982  0.83574412     0.11100
H817        H  0.69266754  0.89850694  0.79220629     0.11200
H818        H  0.67910050  0.91910761  0.83363513     0.10000
C819        C  0.64304931  0.09602743  0.98913981    -0.03800
C820        C  0.64404573  0.12353879  0.99320044    -0.09500
C821        C  0.65868398  0.13973061  0.97625080    -0.17200
C822        C  0.67264101  0.12869344  0.95510197     0.24900
C823        C  0.67238268  0.10128674  0.95133388    -0.18900
C824        C  0.65773592  0.08504567  0.96823314    -0.07800
C825        C  0.68545003  0.14557152  0.93607140    -0.14200
C826        C  0.69407304  0.15914131  0.91845472    -0.14000
C827        C  0.70151066  0.17386891  0.89523605     0.24800
C828        C  0.69407301  0.16428962  0.87045813    -0.19400
C829        C  0.69969781  0.17875560  0.84770571    -0.07800
C830        C  0.71291539  0.20321875  0.84923720    -0.03900
C831        C  0.72075368  0.21258362  0.87422737    -0.09200
C832        C  0.71501772  0.19798077  0.89711870    -0.16900
H833        H  0.63300921  0.13265980  0.00908936     0.11300
H834        H  0.65859215  0.16092360  0.97926961     0.10600
H835        H  0.68298077  0.09252116  0.93493553     0.10500
H836        H  0.65746476  0.06396917  0.96455807     0.11000
H837        H  0.68356972  0.14571582  0.86872409     0.11100
H838        H  0.69339548  0.17076014  0.82889397     0.11100
H839        H  0.73094966  0.23128453  0.87612356     0.11200
H840        H  0.72080923  0.20563353  0.91624593     0.10000
C841        C  0.46614046  0.07297956  0.14124045    -0.03800
C842        C  0.47551470  0.09487382  0.15555713    -0.09500
C843        C  0.45817725  0.11033437  0.17052933    -0.17200
C844        C  0.43124552  0.10415532  0.17150464     0.24900
C845        C  0.42180161  0.08208327  0.15781423    -0.18900
C846        C  0.43910889  0.06655151  0.14285331    -0.07800
C847        C  0.41325916  0.12163527  0.18502912    -0.14200
C848        C  0.39983614  0.13880312  0.19473080    -0.14000
C849        C  0.38696579  0.16258376  0.20369385     0.24800
C850        C  0.40046740  0.18648823  0.20120852    -0.19400
C851        C  0.38806970  0.21018566  0.20760222    -0.07800
C852        C  0.36175803  0.21055440  0.21660782    -0.03900
C853        C  0.34848479  0.18635517  0.22000795    -0.09200
C854        C  0.36103399  0.16245106  0.21345924    -0.16900
H855        H  0.49615902  0.10035905  0.15482869     0.11300
H856        H  0.46570651  0.12746626  0.18091802     0.10600
H857        H  0.40099292  0.07717704  0.15826710     0.10500
H858        H  0.43119665  0.04981844  0.13213461     0.11000
H859        H  0.42051219  0.18688716  0.19373209     0.11100
H860        H  0.39908981  0.22832599  0.20497139     0.11100
H861        H  0.32825685  0.18596349  0.22689375     0.11200
H862        H  0.35036530  0.14401606  0.21545629     0.10000
C863        C  0.86196551  0.35419529  0.85499560    -0.03800
C864        C  0.85372610  0.37831730  0.84380833    -0.09500
C865        C  0.86813474  0.40156791  0.84839675    -0.17200
C866        C  0.89093942  0.40088934  0.86408826     0.24900
C867        C  0.89942053  0.37693211  0.87485185    -0.18900
C868        C  0.88513581  0.35383455  0.87037874    -0.07800
C869        C  0.90551237  0.42455241  0.87027066    -0.14200
C870        C  0.91927007  0.44229813  0.87828337    -0.14000
C871        C  0.93669841  0.46105561  0.89074242     0.24800
C872        C  0.96356594  0.45512580  0.89347626    -0.19400
C873        C  0.98009138  0.47175202  0.90811926    -0.07800
C874        C  0.96991549  0.49452655  0.92037794    -0.03900
C875        C  0.94302915  0.50075533  0.91679880    -0.09200
C876        C  0.92655800  0.48409968  0.90214044    -0.16900
H877        H  0.83601507  0.37930003  0.83187429     0.11300
H878        H  0.86134418  0.42004506  0.83999145     0.10600
H879        H  0.91699639  0.37614007  0.88703966     0.10500
H880        H  0.89222861  0.33570418  0.87925275     0.11000
H881        H  0.97160970  0.43724255  0.88489375     0.11100
H882        H  0.00064874  0.46636934  0.91043817     0.11100
H883        H  0.93452996  0.51816601  0.92586781     0.11200
H884        H  0.90578023  0.48883187  0.90031171     0.10000
C885        C  0.84807418  0.71693080  0.20369925    -0.03800
C886        C  0.84677005  0.70553387  0.17833946    -0.09500
C887        C  0.86965144  0.70044043  0.16401808    -0.17200
C888        C  0.89429834  0.70661964  0.17465668     0.24900
C889        C  0.89598243  0.71839339  0.19967403    -0.18900
C890        C  0.87293985  0.72362162  0.21413919    -0.07800
C891        C  0.91752114  0.69943380  0.16000895    -0.14200
C892        C  0.93474411  0.69073848  0.14608608    -0.14000
C893        C  0.95295837  0.67763612  0.12867341     0.24800
C894        C  0.97639964  0.66699767  0.13864195    -0.19400
C895        C  0.99285497  0.65205258  0.12227948    -0.07800
C896        C  0.98602888  0.64749159  0.09568567    -0.03900
C897        C  0.96270482  0.65881049  0.08568470    -0.09200
C898        C  0.94625868  0.67371914  0.10211762    -0.16900
H899        H  0.82803544  0.70022350  0.16952324     0.11300
H900        H  0.86811760  0.69126409  0.14472755     0.10600
H901        H  0.91504024  0.72315348  0.20812394     0.10500
H902        H  0.87460993  0.73240068  0.23357534     0.11000
H903        H  0.98167476  0.66975438  0.15920678     0.11100
H904        H  0.01069762  0.64370567  0.13060060     0.11100
H905        H  0.95685730  0.65567545  0.06534247     0.11200
H906        H  0.92802524  0.68169748  0.09425961     0.10000
C907        C  0.21969622  0.36982074  0.21323427    -0.03800
C908        C  0.21426656  0.39707394  0.21476296    -0.09500
C909        C  0.20826359  0.41154372  0.19210506    -0.17200
C910        C  0.20750783  0.39910264  0.16748505     0.24900
C911        C  0.21381810  0.37218042  0.16550955    -0.18900
C912        C  0.22005252  0.35760217  0.18828432    -0.07800
C913        C  0.19819423  0.41380187  0.14493966    -0.14200
C914        C  0.18813500  0.42738547  0.12811173    -0.14000
C915        C  0.17394874  0.44428433  0.11009795     0.24800
C916        C  0.16385308  0.43412629  0.08645466    -0.19400
C917        C  0.14837517  0.45004332  0.06997254    -0.07800
C918        C  0.14275661  0.47639398  0.07693868    -0.03900
C919        C  0.15339893  0.48655158  0.10054206    -0.09200
C920        C  0.16882190  0.47057871  0.11700208    -0.16900
H921        H  0.21407405  0.40718554  0.23362168     0.11300
H922        H  0.20341036  0.43232263  0.19391863     0.10600
H923        H  0.21317942  0.36231454  0.14652904     0.10500
H924        H  0.22406257  0.33666186  0.18651433     0.11000
H925        H  0.16755582  0.41376769  0.08097498     0.11100
H926        H  0.14054658  0.44159840  0.05194532     0.11100
H927        H  0.14943930  0.50670189  0.10654796     0.11200
H928        H  0.17637286  0.47861506  0.13534994     0.10000
C929        C  0.80953126  0.70546788  0.85738108    -0.03800
C930        C  0.80916140  0.69369377  0.88256653    -0.09500
C931        C  0.83255026  0.68556116  0.89453206    -0.17200
C932        C  0.85663928  0.68903404  0.88157025     0.24900
C933        C  0.85732323  0.70044395  0.85639349    -0.18900
C934        C  0.83387087  0.70865277  0.84432558    -0.07800
C935        C  0.88038633  0.68033488  0.89428065    -0.14200
C936        C  0.89853141  0.67126707  0.90662180    -0.14000
C937        C  0.91791547  0.65799299  0.92242875     0.24800
C938        C  0.92846850  0.67018000  0.94489755    -0.19400
C939        C  0.94574725  0.65623766  0.96135277    -0.07800
C940        C  0.95246760  0.62990447  0.95551062    -0.03900
C941        C  0.94195694  0.61803032  0.93266488    -0.09200
C942        C  0.92480060  0.63199189  0.91628320    -0.16900
H943        H  0.79082766  0.69092116  0.89320300     0.11300
H944        H  0.83184748  0.67660272  0.91397519     0.10600
H945        H  0.87592395  0.70306200  0.84616545     0.10500
H946        H  0.83484033  0.71766231  0.82493977     0.11000
H947        H  0.92301668  0.69026258  0.94991505     0.11100
H948        H  0.95351041  0.66590865  0.97878263     0.11100
H949        H  0.94677463  0.59782679  0.92752221     0.11200
H950        H  0.91654522  0.62233845  0.89904921     0.10000
C951        C  0.60586618  0.11318651  0.12494818    -0.03800
C952        C  0.62852851  0.12430021  0.11330416    -0.09500
C953        C  0.64437031  0.14181059  0.12744781    -0.17200
C954        C  0.63787583  0.14850326  0.15342016     0.24900
C955        C  0.61556278  0.13738155  0.16537922    -0.18900
C956        C  0.59964455  0.11973351  0.15124622    -0.07800
C957        C  0.65341785  0.16795946  0.16699012    -0.14200
C958        C  0.66612166  0.18580686  0.17622458    -0.14000
C959        C  0.68004728  0.20885704  0.18512472     0.24800
C960        C  0.67050473  0.23384442  0.17827289    -0.19400
C961        C  0.68359480  0.25649917  0.18685512    -0.07800
C962        C  0.70652038  0.25449937  0.20244184    -0.03900
C963        C  0.71625957  0.22924787  0.20888651    -0.09200
C964        C  0.70304385  0.20654261  0.20027988    -0.16900
H965        H  0.63398849  0.11962398  0.09315128     0.11300
H966        H  0.66151271  0.15042794  0.11797435     0.10600
H967        H  0.61029211  0.14260428  0.18545655     0.10500
H968        H  0.58236284  0.11149560  0.16076249     0.11000
H969        H  0.65281150  0.23582916  0.16639841     0.11100
H970        H  0.67558102  0.27558046  0.18142522     0.11100
H971        H  0.73381446  0.22701743  0.22088689     0.11200
H972        H  0.71064961  0.18724314  0.20556607     0.10000
C973        C  0.44210009  0.45338673  0.61458926    -0.03800
C974        C  0.41625759  0.45944790  0.62280510    -0.09500
C975        C  0.40368668  0.44396625  0.64201988    -0.17200
C976        C  0.41672897  0.42221578  0.65313756     0.24900
C977        C  0.44224457  0.41585007  0.64479828    -0.18900
C978        C  0.45483785  0.43126577  0.62570551    -0.07800
C979        C  0.40459966  0.40702785  0.67392882    -0.14200
C980        C  0.39583405  0.39475610  0.69238885    -0.14000
C981        C  0.38653499  0.38139980  0.71573485     0.24800
C982        C  0.37211452  0.35786924  0.71382416    -0.19400
C983        C  0.36264855  0.34547739  0.73669615    -0.07800
C984        C  0.36748006  0.35654617  0.76176031    -0.03900
C985        C  0.38243614  0.37994064  0.76340186    -0.09200
C986        C  0.39185518  0.39222692  0.74057925    -0.16900
H987        H  0.40594862  0.47637242  0.61474154     0.11300
H988        H  0.38396192  0.44916318  0.64844648     0.10600
H989        H  0.45257993  0.39914917  0.65332679     0.10500
H990        H  0.47471303  0.42597548  0.61987408     0.11000
H991        H  0.36796422  0.34925514  0.69467526     0.11100
H992        H  0.35121254  0.32751778  0.73470267     0.11100
H993        H  0.38662763  0.38901802  0.78231410     0.11200
H994        H  0.40309160  0.41036073  0.74231036     0.10000
C995        C  0.61483894  0.62388288  0.10873229    -0.03800
C996        C  0.63047325  0.61111194  0.12784385    -0.09500
C997        C  0.64698253  0.62569374  0.14436049    -0.17200
C998        C  0.64802406  0.65319794  0.14212312     0.24900
C999        C  0.63260867  0.66615309  0.12318620    -0.18900
C1000       C  0.61607435  0.65157912  0.10654949    -0.07800
C1001       C  0.66602069  0.66772630  0.15846130    -0.14200
C1002       C  0.68325656  0.67777990  0.17132940    -0.14000
C1003       C  0.70648203  0.68707863  0.18456768     0.24800
C1004       C  0.70483798  0.70107315  0.20837217    -0.19400
C1005       C  0.72791426  0.70957686  0.22100780    -0.07800
C1006       C  0.75278493  0.70411602  0.20986118    -0.03900
C1007       C  0.75405662  0.68982758  0.18604416    -0.09200
C1008       C  0.73109298  0.68141046  0.17354280    -0.16900
H1009       H  0.63006052  0.58982394  0.12999184     0.11300
H1010       H  0.65907822  0.61548689  0.15878256     0.10600
H1011       H  0.63349613  0.68744723  0.12117166     0.10500
H1012       H  0.60424412  0.66197454  0.09206773     0.11000
H1013       H  0.68580565  0.70542173  0.21710301     0.11100
H1014       H  0.72627273  0.72058638  0.23927656     0.11100
H1015       H  0.77281223  0.68520284  0.17689064     0.11200
H1016       H  0.73254622  0.67044839  0.15520341     0.10000
C1017       C  0.57711055  0.64457335  0.97103104    -0.03800
C1018       C  0.57193186  0.64746505  0.94383133    -0.09500
C1019       C  0.58818827  0.66326023  0.92797397    -0.17200
C1020       C  0.60977236  0.67651333  0.93903586     0.24900
C1021       C  0.61470405  0.67428776  0.96617851    -0.18900
C1022       C  0.59850695  0.65848622  0.98207311    -0.07800
C1023       C  0.62804018  0.69067389  0.92232708    -0.14200
C1024       C  0.64523461  0.70038574  0.90892742    -0.14000
C1025       C  0.66833191  0.70877409  0.89448980     0.24800
C1026       C  0.66638614  0.72048619  0.86942124    -0.19400
C1027       C  0.68930093  0.72614621  0.85481895    -0.07800
C1028       C  0.71436557  0.71996466  0.86513048    -0.03900
C1029       C  0.71594556  0.70903292  0.89071231    -0.09200
C1030       C  0.69319374  0.70348759  0.90515991    -0.16900
H1031       H  0.55564133  0.63709098  0.93466326     0.11300
H1032       H  0.58425245  0.66466263  0.90697651     0.10600
H1033       H  0.63144027  0.68429966  0.97497182     0.10500
H1034       H  0.60305546  0.65679269  0.00291418     0.11000
H1035       H  0.64720880  0.72464609  0.86092048     0.11100
H1036       H  0.68736883  0.73461116  0.83526326     0.11100
H1037       H  0.73481471  0.70417938  0.89951207     0.11200
H1038       H  0.69501132  0.69443560  0.92448924     0.10000
C1039       C  0.36360630  0.30613182  0.20407419    -0.03800
C1040       C  0.38870911  0.30311276  0.19249099    -0.09500
C1041       C  0.40295290  0.32506810  0.18397876    -0.17200
C1042       C  0.39240652  0.35039487  0.18684637     0.24900
C1043       C  0.36744075  0.35373682  0.19825102    -0.18900
C1044       C  0.35309106  0.33171632  0.20687127    -0.07800
C1045       C  0.40706756  0.37268309  0.17720213    -0.14200
C1046       C  0.41980563  0.39022746  0.16743220    -0.14000
C1047       C  0.43460702  0.41011970  0.15363853     0.24800
C1048       C  0.45740980  0.42103524  0.16481754    -0.19400
C1049       C  0.47194229  0.43997801  0.15086744    -0.07800
C1050       C  0.46383134  0.44808712  0.12552352    -0.03900
C1051       C  0.44087519  0.43692084  0.11453488    -0.09200
C1052       C  0.42640363  0.41809990  0.12850984    -0.16900
H1053       H  0.39750069  0.28376678  0.19003841     0.11300
H1054       H  0.42219331  0.32226535  0.17505139     0.10600
H1055       H  0.35905837  0.37331211  0.20040743     0.10500
H1056       H  0.33387084  0.33472807  0.21572557     0.11000
H1057       H  0.46401053  0.41482676  0.18421472     0.11100
H1058       H  0.48960585  0.44806461  0.15979233     0.11100
H1059       H  0.43408492  0.44265289  0.09506631     0.11200
H1060       H  0.40886096  0.40965754  0.11963466     0.10000
C1061       C  0.70377620  0.35022545  0.21648478    -0.03800
C1062       C  0.67831948  0.35042099  0.20535995    -0.09500
C1063       C  0.66545216  0.37418172  0.20022126    -0.17200
C1064       C  0.67771342  0.39819144  0.20605059     0.24900
C1065       C  0.70280550  0.39837178  0.21769079    -0.18900
C1066       C  0.71577017  0.37446550  0.22299882    -0.07800
C1067       C  0.66472908  0.42223628  0.19833774    -0.14200
C1068       C  0.65167838  0.43972236  0.18883388    -0.14000
C1069       C  0.63450706  0.45729889  0.17458719     0.24800
C1070       C  0.64499732  0.47819052  0.15986360    -0.19400
C1071       C  0.62851865  0.49348798  0.14381644    -0.07800
C1072       C  0.60131506  0.48795718  0.14217099    -0.03900
C1073       C  0.59090875  0.46718767  0.15743335    -0.09200
C1074       C  0.60742086  0.45197205  0.17350187    -0.16900
H1075       H  0.66836560  0.33219288  0.20025529     0.11300
H1076       H  0.64606983  0.37382287  0.19115747     0.10600
H1077       H  0.71251177  0.41690296  0.22218031     0.10500
H1078       H  0.73533739  0.37497840  0.23158784     0.11000
H1079       H  0.66597865  0.48229954  0.16033867     0.11100
H1080       H  0.63717631  0.50935064  0.13236694     0.11100
H1081       H  0.57007787  0.46245522  0.15671033     0.11200
H1082       H  0.59914695  0.43565834  0.18462669     0.10000
C1083       C  0.36579644  0.70564294  0.81170671    -0.03800
C1084       C  0.36458706  0.71951133  0.83579548    -0.09500
C1085       C  0.37225385  0.70727961  0.85936771    -0.17200
C1086       C  0.38108839  0.68108641  0.85909738     0.24900
C1087       C  0.38260240  0.66727038  0.83524402    -0.18900
C1088       C  0.37506646  0.67943327  0.81170373    -0.07800
C1089       C  0.38939548  0.66832435  0.88300994    -0.14200
C1090       C  0.39823793  0.65630967  0.90151586    -0.14000
C1091       C  0.41154323  0.64121644  0.92148176     0.24800
C1092       C  0.43710267  0.64838769  0.92892031    -0.19400
C1093       C  0.45130336  0.63261733  0.94646463    -0.07800
C1094       C  0.44011292  0.60937205  0.95684836    -0.03900
C1095       C  0.41413852  0.60258792  0.94972402    -0.09200
C1096       C  0.39996434  0.61841466  0.93202485    -0.16900
H1097       H  0.35758997  0.73971823  0.83647116     0.11300
H1098       H  0.37123643  0.71819615  0.87775201     0.10600
H1099       H  0.38959211  0.64703430  0.83484154     0.10500
H1100       H  0.37618564  0.66813170  0.79357449     0.11000
H1101       H  0.44628558  0.66590302  0.92071780     0.11100
H1102       H  0.47120431  0.63848952  0.95160971     0.11100
H1103       H  0.40501446  0.58480248  0.95734303     0.11200
H1104       H  0.38023241  0.61260309  0.92617286     0.10000
C1105       C  0.42125882  0.46960421  0.99343321    -0.03800
C1106       C  0.41823176  0.44270011  0.99995462    -0.09500
C1107       C  0.40215587  0.42625775  0.98468880    -0.17200
C1108       C  0.38875196  0.43645166  0.96279361     0.24900
C1109       C  0.39086792  0.46336831  0.95668679    -0.18900
C1110       C  0.40695655  0.47987944  0.97192824    -0.07800
C1111       C  0.37512971  0.41892942  0.94501278    -0.14200
C1112       C  0.36642062  0.40509706  0.92768147    -0.14000
C1113       C  0.35958789  0.39089435  0.90400684     0.24800
C1114       C  0.34843756  0.36555638  0.90495115    -0.19400
C1115       C  0.34371257  0.35158440  0.88145652    -0.07800
C1116       C  0.35035186  0.36279074  0.85685991    -0.03900
C1117       C  0.36110244  0.38843077  0.85629012    -0.09200
C1118       C  0.36563820  0.40229871  0.87961994    -0.16900
H1119       H  0.42881119  0.43414691  0.01646876     0.11300
H1120       H  0.40082404  0.40543707  0.98949839     0.10600
H1121       H  0.38072148  0.47143254  0.93964598     0.10500
H1122       H  0.40873698  0.50048483  0.96643947     0.11000
H1123       H  0.34380201  0.35647450  0.92377164     0.11100
H1124       H  0.33545376  0.33188581  0.88256832     0.11100
H1125       H  0.36629436  0.39780929  0.83777242     0.11200
H1126       H  0.37433528  0.42183976  0.87863703     0.10000
C1127       C  0.44948429  0.12878008  0.46071835    -0.03800
C1128       C  0.44309958  0.15499082  0.46749959    -0.09500
C1129       C  0.42446975  0.16909982  0.45274911    -0.17200
C1130       C  0.41212728  0.15720661  0.43105586     0.24900
C1131       C  0.41848784  0.13125893  0.42408153    -0.18900
C1132       C  0.43702543  0.11712562  0.43877085    -0.07800
C1133       C  0.39217150  0.17104952  0.41640943    -0.14200
C1134       C  0.37429568  0.18087945  0.40420267    -0.14000
C1135       C  0.35151909  0.19071845  0.39047263     0.24800
C1136       C  0.35390639  0.20197429  0.36531064    -0.19400
C1137       C  0.33143898  0.21098678  0.35196034    -0.07800
C1138       C  0.30634787  0.20878499  0.36369178    -0.03900
C1139       C  0.30426275  0.19727322  0.38894815    -0.09200
C1140       C  0.32667644  0.18833056  0.40219242    -0.16900
H1141       H  0.45229119  0.16450097  0.48431125     0.11300
H1142       H  0.41953806  0.18915245  0.45838617     0.10600
H1143       H  0.40892683  0.12184723  0.40740095     0.10500
H1144       H  0.44146386  0.09700708  0.43299649     0.11000
H1145       H  0.37308776  0.20375571  0.35602131     0.11100
H1146       H  0.33373976  0.21974795  0.33257501     0.11100
H1147       H  0.28530949  0.19521720  0.39861468     0.11200
H1148       H  0.32461269  0.17949965  0.42159539     0.10000
C1149       C  0.84853876  0.86454085  0.35598671    -0.03800
C1150       C  0.85798418  0.89063410  0.35445707    -0.09500
C1151       C  0.86255030  0.90522586  0.37734889    -0.17200
C1152       C  0.85783312  0.89400908  0.40213500     0.24900
C1153       C  0.84730984  0.86846515  0.40392687    -0.18900
C1154       C  0.84248985  0.85382423  0.38091164    -0.07800
C1155       C  0.86617649  0.90814638  0.42531854    -0.14200
C1156       C  0.87622387  0.92134088  0.44239447    -0.14000
C1157       C  0.89090718  0.93819603  0.45992770     0.24800
C1158       C  0.89798903  0.96359026  0.45159219    -0.19400
C1159       C  0.91391769  0.97949843  0.46753674    -0.07800
C1160       C  0.92317510  0.97011632  0.49200867    -0.03900
C1161       C  0.91568989  0.94465730  0.50038781    -0.09200
C1162       C  0.89963911  0.92881056  0.48442562    -0.16900
H1163       H  0.86254269  0.89957376  0.33555185     0.11300
H1164       H  0.87068434  0.92496569  0.37572881     0.10600
H1165       H  0.84367364  0.85957071  0.42305534     0.10500
H1166       H  0.83522295  0.83378140  0.38266849     0.11000
H1167       H  0.89155274  0.97094195  0.43253619     0.11100
H1168       H  0.91941187  0.99892592  0.46044725     0.11100
H1169       H  0.92242680  0.93688873  0.51915593     0.11200
H1170       H  0.89443187  0.90910824  0.49097901     0.10000
C1171       C  0.20490653  0.85021888  0.71518647    -0.03800
C1172       C  0.18068717  0.84982194  0.70153841    -0.09500
C1173       C  0.16700623  0.87316178  0.69647995    -0.17200
C1174       C  0.17715621  0.89737833  0.70493419     0.24900
C1175       C  0.20107082  0.89813701  0.71884460    -0.18900
C1176       C  0.21488174  0.87465338  0.72400997    -0.07800
C1177       C  0.16313243  0.92116194  0.69809449    -0.14200
C1178       C  0.14966508  0.93885560  0.68952860    -0.14000
C1179       C  0.13255541  0.95732430  0.67627817     0.24800
C1180       C  0.14329521  0.97710208  0.66025193    -0.19400
C1181       C  0.12677621  0.99300556  0.64485822    -0.07800
C1182       C  0.09923087  0.98919493  0.64510325    -0.03900
C1183       C  0.08856063  0.96975270  0.66186323    -0.09200
C1184       C  0.10514047  0.95393085  0.67733049    -0.16900
H1185       H  0.17229096  0.83146460  0.69447641     0.11300
H1186       H  0.14857462  0.87233080  0.68563682     0.10600
H1187       H  0.20915932  0.91682594  0.72541084     0.10500
H1188       H  0.23343511  0.87566568  0.73457961     0.11000
H1189       H  0.16448328  0.97976238  0.65909258     0.11100
H1190       H  0.13566601  0.00780719  0.63222605     0.11100
H1191       H  0.06746416  0.96641468  0.66264621     0.11200
H1192       H  0.09661801  0.93854652  0.68953423     0.10000
C1193       C  0.11372983  0.12352487  0.61119416    -0.03800
C1194       C  0.12509609  0.11078060  0.63316004    -0.09500
C1195       C  0.14185406  0.12447466  0.65012769    -0.17200
C1196       C  0.14747449  0.15107820  0.64547897     0.24900
C1197       C  0.13599529  0.16413801  0.62395828    -0.18900
C1198       C  0.11911768  0.15044794  0.60689485    -0.07800
C1199       C  0.16651559  0.16416932  0.66182746    -0.14200
C1200       C  0.18437606  0.17299329  0.67473979    -0.14000
C1201       C  0.20769901  0.18147690  0.68835391     0.24800
C1202       C  0.23234183  0.17326923  0.67907009    -0.19400
C1203       C  0.25532026  0.18189595  0.69149073    -0.07800
C1204       C  0.25396636  0.19887735  0.71345866    -0.03900
C1205       C  0.22904359  0.20654198  0.72307821    -0.09200
C1206       C  0.20601131  0.19790344  0.71051922    -0.16900
H1207       H  0.12128108  0.09010603  0.63715145     0.11300
H1208       H  0.15080138  0.11417014  0.66663328     0.10600
H1209       H  0.14042636  0.18472731  0.62013165     0.10500
H1210       H  0.11059462  0.16080517  0.59022275     0.11000
H1211       H  0.23381160  0.16042104  0.66200329     0.11100
H1212       H  0.27414848  0.17549685  0.68364265     0.11100
H1213       H  0.22733735  0.21964291  0.73990299     0.11200
H1214       H  0.18696472  0.20426190  0.71788436     0.10000
C1215       C  0.07762575  0.14374982  0.47090862    -0.03800
C1216       C  0.07217546  0.14602361  0.44369736    -0.09500
C1217       C  0.08769971  0.16217170  0.42752104    -0.17200
C1218       C  0.10879465  0.17637946  0.43828370     0.24900
C1219       C  0.11408660  0.17464555  0.46539007    -0.18900
C1220       C  0.09862103  0.15847499  0.48161275    -0.07800
C1221       C  0.12613295  0.19128190  0.42133946    -0.14200
C1222       C  0.14262435  0.20200410  0.40789515    -0.14000
C1223       C  0.16502528  0.21217063  0.39363149     0.24800
C1224       C  0.16427098  0.21531794  0.36610166    -0.19400
C1225       C  0.18732446  0.22188239  0.35221602    -0.07800
C1226       C  0.21134584  0.22492181  0.36578302    -0.03900
C1227       C  0.21156923  0.22285403  0.39350204    -0.09200
C1228       C  0.18858557  0.21659325  0.40728871    -0.16900
H1229       H  0.05617079  0.13499878  0.43478668     0.11300
H1230       H  0.08352904  0.16320516  0.40654621     0.10600
H1231       H  0.13048148  0.18542619  0.47391496     0.10500
H1232       H  0.10333094  0.15725072  0.50245025     0.11000
H1233       H  0.14614519  0.21179356  0.35531082     0.11100
H1234       H  0.18665831  0.22321930  0.33086864     0.11100
H1235       H  0.22974624  0.22530853  0.40450333     0.11200
H1236       H  0.18943741  0.21419157  0.42855361     0.10000
C1237       C  0.86299994  0.80867583  0.70543249    -0.03800
C1238       C  0.88821114  0.80712133  0.69384136    -0.09500
C1239       C  0.90165157  0.83000027  0.68649768    -0.17200
C1240       C  0.89017555  0.85476082  0.69062093     0.24900
C1241       C  0.86517411  0.85663473  0.70222060    -0.18900
C1242       C  0.85163897  0.83371119  0.70963660    -0.07800
C1243       C  0.90376992  0.87797585  0.68170052    -0.14200
C1244       C  0.91587245  0.89596118  0.67196407    -0.14000
C1245       C  0.93053339  0.91551733  0.65761082     0.24800
C1246       C  0.94967091  0.93091937  0.67026499    -0.19400
C1247       C  0.96471506  0.94894947  0.65569246    -0.07800
C1248       C  0.96071447  0.95171820  0.62830099    -0.03900
C1249       C  0.94124029  0.93626558  0.61589269    -0.09200
C1250       C  0.92632720  0.91827142  0.63045706    -0.16900
H1251       H  0.89762062  0.78822669  0.69037312     0.11300
H1252       H  0.92093893  0.82835992  0.67738489     0.10600
H1253       H  0.85608004  0.87575695  0.70534248     0.10500
H1254       H  0.83232511  0.83560805  0.71859489     0.11000
H1255       H  0.95314962  0.92879483  0.69128268     0.11100
H1256       H  0.97953461  0.96057433  0.66581382     0.11100
H1257       H  0.93770500  0.93781746  0.59484294     0.11200
H1258       H  0.91167906  0.90628767  0.62046713     0.10000
C1259       C  0.20096255  0.71132275  0.25658101    -0.03800
C1260       C  0.18383915  0.68949891  0.25811319    -0.09500
C1261       C  0.17486867  0.67716310  0.23519327    -0.17200
C1262       C  0.18288742  0.68637966  0.21043241     0.24900
C1263       C  0.19958059  0.70832802  0.20858934    -0.18900
C1264       C  0.20854688  0.72081095  0.23155904    -0.07800
C1265       C  0.17370172  0.67313700  0.18711605    -0.14200
C1266       C  0.16430354  0.66094601  0.16900975    -0.14000
C1267       C  0.15080472  0.64578781  0.14922656     0.24800
C1268       C  0.16298271  0.62389191  0.13753894    -0.19400
C1269       C  0.14898966  0.60820882  0.11960864    -0.07800
C1270       C  0.12260106  0.61422934  0.11331884    -0.03900
C1271       C  0.11072279  0.63651506  0.12495266    -0.09200
C1272       C  0.12474624  0.65214504  0.14278038    -0.16900
H1273       H  0.17750948  0.68176764  0.27703487     0.11300
H1274       H  0.16181305  0.66027914  0.23679467     0.10600
H1275       H  0.20580200  0.71564925  0.18945960     0.10500
H1276       H  0.22177921  0.73750927  0.22972555     0.11000
H1277       H  0.18312218  0.61872936  0.14256510     0.11100
H1278       H  0.15868754  0.59120164  0.11099049     0.11100
H1279       H  0.09048502  0.64177283  0.12049417     0.11200
H1280       H  0.11511634  0.66897533  0.15185223     0.10000
C1281       C  0.75965858  0.36688482  0.35754933    -0.03800
C1282       C  0.73439334  0.36052645  0.34785768    -0.09500
C1283       C  0.71175839  0.37063407  0.36009942    -0.17200
C1284       C  0.71409492  0.38728303  0.38206482     0.24900
C1285       C  0.73912525  0.39407414  0.39152481    -0.18900
C1286       C  0.76173350  0.38395438  0.37941340    -0.07800
C1287       C  0.69096648  0.39723588  0.39526522    -0.14200
C1288       C  0.67257097  0.40632359  0.40735655    -0.14000
C1289       C  0.65188073  0.41852815  0.42257197     0.24800
C1290       C  0.64647182  0.44538195  0.41910841    -0.19400
C1291       C  0.62749249  0.45781332  0.43475925    -0.07800
C1292       C  0.61363575  0.44358735  0.45428255    -0.03900
C1293       C  0.61890364  0.41646702  0.45737065    -0.09200
C1294       C  0.63793771  0.40403100  0.44159113    -0.16900
H1295       H  0.73207571  0.34739787  0.33112830     0.11300
H1296       H  0.69246381  0.36527265  0.35259221     0.10600
H1297       H  0.74117370  0.40700979  0.40846047     0.10500
H1298       H  0.78083127  0.38935852  0.38735206     0.11000
H1299       H  0.65719478  0.45682772  0.40453703     0.11100
H1300       H  0.62399507  0.47871631  0.43179324     0.11100
H1301       H  0.60858330  0.40496153  0.47215736     0.11200
H1302       H  0.64204097  0.38322109  0.44448190     0.10000
C1303       C  0.11241537  0.61105776  0.62758518    -0.03800
C1304       C  0.13306330  0.62486299  0.61509805    -0.09500
C1305       C  0.14912582  0.64198335  0.62945617    -0.17200
C1306       C  0.14492852  0.64552874  0.65650044     0.24900
C1307       C  0.12481517  0.63154065  0.66931819    -0.18900
C1308       C  0.10863150  0.61433245  0.65494418    -0.07800
C1309       C  0.16017808  0.66500122  0.67034252    -0.14200
C1310       C  0.17229752  0.68331462  0.67942159    -0.14000
C1311       C  0.18529714  0.70709880  0.68771073     0.24800
C1312       C  0.17478801  0.73152010  0.68021422    -0.19400
C1313       C  0.18709332  0.75488696  0.68802419    -0.07800
C1314       C  0.21018078  0.75414173  0.70344011    -0.03900
C1315       C  0.22085277  0.72944784  0.71058090    -0.09200
C1316       C  0.20842986  0.70604799  0.70276341    -0.16900
H1317       H  0.13659980  0.62279554  0.59409550     0.11300
H1318       H  0.16452657  0.65286354  0.61933207     0.10600
H1319       H  0.12133383  0.63430304  0.69025798     0.10500
H1320       H  0.09299091  0.60391068  0.66513920     0.11000
H1321       H  0.15697409  0.73250497  0.66839765     0.11100
H1322       H  0.17838669  0.77351684  0.68211471     0.11100
H1323       H  0.23856089  0.72817812  0.72249621     0.11200
H1324       H  0.21677928  0.68719984  0.70853543     0.10000
C1325       C  0.97181514  0.57503246  0.64460584    -0.03800
C1326       C  0.94492935  0.56839045  0.64725489    -0.09500
C1327       C  0.92795664  0.58413623  0.66229979    -0.17200
C1328       C  0.93756774  0.60668005  0.67502619     0.24900
C1329       C  0.96442833  0.61302324  0.67320936    -0.18900
C1330       C  0.98147398  0.59729524  0.65815248    -0.07800
C1331       C  0.91958610  0.62457081  0.68794296    -0.14200
C1332       C  0.90548840  0.64176636  0.69653354    -0.14000
C1333       C  0.89127105  0.66529348  0.70391889     0.24800
C1334       C  0.90378603  0.68967585  0.70094135    -0.19400
C1335       C  0.89021100  0.71300654  0.70623249    -0.07800
C1336       C  0.86371392  0.71249303  0.71467323    -0.03900
C1337       C  0.85130063  0.68784984  0.71816436    -0.09200
C1338       C  0.86501843  0.66433806  0.71269841    -0.16900
H1339       H  0.93681405  0.55135207  0.63718886     0.11300
H1340       H  0.90720059  0.57910818  0.66341491     0.10600
H1341       H  0.97206341  0.63054326  0.68284439     0.10500
H1342       H  0.00202548  0.60295246  0.65658292     0.11000
H1343       H  0.92403337  0.69069947  0.69409956     0.11100
H1344       H  0.90055572  0.73151759  0.70345116     0.11100
H1345       H  0.83093826  0.68677116  0.72456142     0.11200
H1346       H  0.85507590  0.64552721  0.71494587     0.10000
C1347       C  0.12814182  0.46116120  0.45145859    -0.03800
C1348       C  0.15466024  0.46749080  0.44607631    -0.09500
C1349       C  0.16932708  0.45217988  0.42836626    -0.17200
C1350       C  0.15766967  0.43037663  0.41600972     0.24900
C1351       C  0.13145175  0.42380040  0.42146718    -0.18900
C1352       C  0.11676739  0.43904830  0.43905907    -0.07800
C1353       C  0.17180259  0.41550627  0.39648868    -0.14200
C1354       C  0.18111549  0.40326743  0.37838793    -0.14000
C1355       C  0.18950182  0.38979831  0.35492279     0.24800
C1356       C  0.18205748  0.39982333  0.33029509    -0.19400
C1357       C  0.18987660  0.38700879  0.30721783    -0.07800
C1358       C  0.20525620  0.36389273  0.30846247    -0.03900
C1359       C  0.21226197  0.35364843  0.33336315    -0.09200
C1360       C  0.20444565  0.36659962  0.35648913    -0.16900
H1361       H  0.16396726  0.48439824  0.45529549     0.11300
H1362       H  0.18958160  0.45752738  0.42406692     0.10600
H1363       H  0.12222467  0.40706236  0.41182736     0.10500
H1364       H  0.09643982  0.43358759  0.44278650     0.11000
H1365       H  0.17027867  0.41765002  0.32892195     0.11100
H1366       H  0.18402317  0.39535964  0.28840358     0.11100
H1367       H  0.22414323  0.33593442  0.33498418     0.11200
H1368       H  0.21013456  0.35861130  0.37552126     0.10000
C1369       C  0.21636230  0.70470162  0.35176883    -0.03800
C1370       C  0.20538116  0.67916096  0.35090855    -0.09500
C1371       C  0.20005413  0.66536505  0.37411126    -0.17200
C1372       C  0.20558260  0.67674114  0.39862599     0.24900
C1373       C  0.21713007  0.70187840  0.39984875    -0.18900
C1374       C  0.22261260  0.71578901  0.37649869    -0.07800
C1375       C  0.19792415  0.66274892  0.42215164    -0.14200
C1376       C  0.18896920  0.64917378  0.43955107    -0.14000
C1377       C  0.17579317  0.63164919  0.45764451     0.24800
C1378       C  0.16552311  0.64123613  0.48143948    -0.19400
C1379       C  0.15057955  0.62467188  0.49774482    -0.07800
C1380       C  0.14565809  0.59828663  0.49038945    -0.03900
C1381       C  0.15665415  0.58867605  0.46673686    -0.09200
C1382       C  0.17154400  0.60528291  0.45047020    -0.16900
H1383       H  0.20050076  0.66986098  0.33227087     0.11300
H1384       H  0.19111490  0.64594593  0.37292313     0.10600
H1385       H  0.22143017  0.71088869  0.41877799     0.10500
H1386       H  0.23107617  0.73538621  0.37782255     0.11000
H1387       H  0.16856104  0.66165206  0.48710720     0.11100
H1388       H  0.14247981  0.63267909  0.51585234     0.11100
H1389       H  0.15325123  0.56850555  0.46046755     0.11200
H1390       H  0.17924985  0.59770938  0.43198911     0.10000
C1391       C  0.81326374  0.36342476  0.70528458    -0.03800
C1392       C  0.81223494  0.37798530  0.68159256    -0.09500
C1393       C  0.83537072  0.38594108  0.66899613    -0.17200
C1394       C  0.85992802  0.37951004  0.67978311     0.24900
C1395       C  0.86129984  0.36520855  0.70344005    -0.18900
C1396       C  0.83808067  0.35720029  0.71616250    -0.07800
C1397       C  0.88345333  0.38825560  0.66654196    -0.14200
C1398       C  0.90150524  0.39758709  0.65418227    -0.14000
C1399       C  0.92107574  0.41121548  0.63878998     0.24800
C1400       C  0.92988187  0.43605904  0.64700460    -0.19400
C1401       C  0.94727766  0.45047824  0.63123321    -0.07800
C1402       C  0.95617334  0.44021349  0.60696550    -0.03900
C1403       C  0.94759296  0.41498887  0.59905012    -0.09200
C1404       C  0.93003669  0.40062476  0.61485321    -0.16900
H1405       H  0.79353356  0.38319045  0.67263316     0.11300
H1406       H  0.83409149  0.39712934  0.65077547     0.10600
H1407       H  0.88025633  0.36023349  0.71200902     0.10500
H1408       H  0.83957293  0.34595457  0.73430645     0.11000
H1409       H  0.92293617  0.44450268  0.66541109     0.11100
H1410       H  0.95359463  0.46977226  0.63798329     0.11100
H1411       H  0.95403773  0.40658810  0.58046044     0.11200
H1412       H  0.92313909  0.38148382  0.60821554     0.10000
C1413       C  0.99239276  0.42386351  0.46708134    -0.03800
C1414       C  0.97076003  0.40985270  0.47747247    -0.09500
C1415       C  0.95508072  0.39409878  0.46106156    -0.17200
C1416       C  0.96079511  0.39202118  0.43407006     0.24900
C1417       C  0.98264298  0.40533810  0.42365325    -0.18900
C1418       C  0.99837661  0.42110221  0.44002688    -0.07800
C1419       C  0.94289947  0.37807870  0.41687080    -0.14200
C1420       C  0.92555939  0.36855458  0.40358029    -0.14000
C1421       C  0.90199681  0.36024731  0.38996613     0.24800
C1422       C  0.87775961  0.36248748  0.40294543    -0.19400
C1423       C  0.85431850  0.35712789  0.38955602    -0.07800
C1424       C  0.85466780  0.34928687  0.36288655    -0.03900
C1425       C  0.87915847  0.34612467  0.35013959    -0.09200
C1426       C  0.90272831  0.35175609  0.36359789    -0.16900
H1427       H  0.96562573  0.41144005  0.49818248     0.11300
H1428       H  0.93810808  0.38402852  0.46932243     0.10600
H1429       H  0.98716734  0.40403461  0.40276999     0.10500
H1430       H  0.01492614  0.43151152  0.43137401     0.11000
H1431       H  0.87691949  0.36905847  0.42330987     0.11100
H1432       H  0.83584292  0.35951441  0.40004942     0.11100
H1433       H  0.88003989  0.34019063  0.32960265     0.11200
H1434       H  0.92139441  0.35007375  0.35329960     0.10000
C1435       C  0.31432405  0.86412842  0.20719501    -0.03800
C1436       C  0.33857927  0.85924159  0.21988761    -0.09500
C1437       C  0.36229022  0.86692552  0.20802560    -0.17200
C1438       C  0.36194435  0.87950449  0.18341741     0.24900
C1439       C  0.33795908  0.88465268  0.17080929    -0.18900
C1440       C  0.31430597  0.87703561  0.18257213    -0.07800
C1441       C  0.38596492  0.88756566  0.17087124    -0.14200
C1442       C  0.40428005  0.89615231  0.15847988    -0.14000
C1443       C  0.42368068  0.90893476  0.14235427     0.24800
C1444       C  0.43378485  0.93335910  0.15023098    -0.19400
C1445       C  0.45046772  0.94737956  0.13344405    -0.07800
C1446       C  0.45729655  0.93709904  0.10853016    -0.03900
C1447       C  0.44760698  0.91219081  0.10101256    -0.09200
C1448       C  0.43071939  0.89824010  0.11783328    -0.16900
H1449       H  0.33927531  0.84932089  0.23883540     0.11300
H1450       H  0.38082181  0.86298324  0.21795938     0.10600
H1451       H  0.33754309  0.89450163  0.15179216     0.10500
H1452       H  0.29604160  0.88111373  0.17223175     0.11000
H1453       H  0.42826963  0.94186191  0.16909165     0.11100
H1454       H  0.45780296  0.96641910  0.13988543     0.11100
H1455       H  0.45251325  0.90384744  0.08193150     0.11200
H1456       H  0.42271095  0.87943283  0.11149515     0.10000
C1457       C  0.86323116  0.20495197  0.31433121    -0.03800
C1458       C  0.87954226  0.18247176  0.31396549    -0.09500
C1459       C  0.88831135  0.17122977  0.33750317    -0.17200
C1460       C  0.88087726  0.18219599  0.36171600     0.24900
C1461       C  0.86487320  0.20471320  0.36240377    -0.18900
C1462       C  0.85610933  0.21610509  0.33879813    -0.07800
C1463       C  0.88993449  0.17001614  0.38561621    -0.14200
C1464       C  0.89933091  0.15795473  0.40378912    -0.14000
C1465       C  0.91275953  0.14217192  0.42308413     0.24800
C1466       C  0.93724101  0.15043986  0.43272259    -0.19400
C1467       C  0.95163836  0.13408107  0.44957339    -0.07800
C1468       C  0.94166379  0.10922710  0.45704364    -0.03900
C1469       C  0.91678031  0.10127541  0.44766578    -0.09200
C1470       C  0.90246693  0.11764549  0.43063842    -0.16900
H1471       H  0.88546900  0.17344678  0.29549579     0.11300
H1472       H  0.90079527  0.15384987  0.33681893     0.10600
H1473       H  0.85907571  0.21334282  0.38111287     0.10500
H1474       H  0.84347826  0.23334232  0.33972498     0.11000
H1475       H  0.94544452  0.16930503  0.42679277     0.11100
H1476       H  0.97067116  0.14082891  0.45659971     0.11100
H1477       H  0.90866458  0.08221648  0.45301367     0.11200
H1478       H  0.88363360  0.11098324  0.42299468     0.10000
C1479       C  0.20489005  0.31475979  0.86441882    -0.03800
C1480       C  0.21870847  0.33874679  0.86174649    -0.09500
C1481       C  0.20703375  0.36257820  0.86953229    -0.17200
C1482       C  0.18143797  0.36267871  0.87994147     0.24900
C1483       C  0.16756079  0.33896600  0.88256953    -0.18900
C1484       C  0.17915903  0.31518961  0.87490418    -0.07800
C1485       C  0.16936612  0.38682072  0.88870276    -0.14200
C1486       C  0.15771812  0.40551273  0.89768296    -0.14000
C1487       C  0.14251082  0.42576337  0.91048165     0.24800
C1488       C  0.15139090  0.43653777  0.93431317    -0.19400
C1489       C  0.13543667  0.45411027  0.94834476    -0.07800
C1490       C  0.11037197  0.46118422  0.93866046    -0.03900
C1491       C  0.10194300  0.45091343  0.91425506    -0.09200
C1492       C  0.11789075  0.43317034  0.90032766    -0.16900
H1493       H  0.23851764  0.33911246  0.85372744     0.11300
H1494       H  0.21797323  0.38085833  0.86752437     0.10600
H1495       H  0.14776124  0.33883487  0.89067177     0.10500
H1496       H  0.16786381  0.29716705  0.87713345     0.11000
H1497       H  0.17036498  0.43083753  0.94239291     0.11100
H1498       H  0.14257412  0.46186109  0.96696775     0.11100
H1499       H  0.08273667  0.45596338  0.90632948     0.11200
H1500       H  0.11076190  0.42476074  0.88198041     0.10000
C1501       C  0.11014271  0.95156197  0.94112959    -0.03800
C1502       C  0.11690344  0.95968450  0.91539208    -0.09500
C1503       C  0.13620326  0.94616965  0.90109154    -0.17200
C1504       C  0.14887908  0.92431589  0.91223775     0.24900
C1505       C  0.14181946  0.91562018  0.93751945    -0.18900
C1506       C  0.12255115  0.92914825  0.95191480    -0.07800
C1507       C  0.17023441  0.91183225  0.89841564    -0.14200
C1508       C  0.18924102  0.90218864  0.88791958    -0.14000
C1509       C  0.21294720  0.89113576  0.87701765     0.24800
C1510       C  0.23565337  0.88962845  0.89264794    -0.19400
C1511       C  0.25869527  0.87844774  0.88249300    -0.07800
C1512       C  0.25928373  0.86849841  0.85653925    -0.03900
C1513       C  0.23640881  0.87037943  0.84085092    -0.09200
C1514       C  0.21338595  0.88169732  0.85104466    -0.16900
H1515       H  0.10774016  0.97685799  0.90650446     0.11300
H1516       H  0.14162139  0.95309796  0.88156957     0.10600
H1517       H  0.15160357  0.89873313  0.94632208     0.10500
H1518       H  0.11772027  0.92233947  0.97161832     0.11000
H1519       H  0.23549239  0.89692830  0.91277651     0.11100
H1520       H  0.27590620  0.87725949  0.89512678     0.11100
H1521       H  0.23625402  0.86304005  0.82075428     0.11200
H1522       H  0.19590652  0.88289008  0.83876476     0.10000
C1523       C  0.08714533  0.91806274  0.08104518    -0.03800
C1524       C  0.11433444  0.91406186  0.07705715    -0.09500
C1525       C  0.12931990  0.90015341  0.09563415    -0.17200
C1526       C  0.11742045  0.88998442  0.11844591     0.24900
C1527       C  0.09027864  0.89327919  0.12232226    -0.18900
C1528       C  0.07521216  0.90717204  0.10373453    -0.07800
C1529       C  0.13362020  0.87778578  0.13843835    -0.14200
C1530       C  0.14990217  0.87000399  0.15401424    -0.14000
C1531       C  0.17275159  0.86420481  0.16993984     0.24800
C1532       C  0.17137552  0.84780751  0.19225149    -0.19400
C1533       C  0.19414888  0.84285707  0.20731517    -0.07800
C1534       C  0.21846713  0.85425647  0.20010788    -0.03900
C1535       C  0.21940492  0.87070456  0.17766835    -0.09200
C1536       C  0.19680473  0.87560188  0.16281267    -0.16900
H1537       H  0.12416584  0.92213947  0.05986021     0.11300
H1538       H  0.15034840  0.89783274  0.09247948     0.10600
H1539       H  0.08086568  0.88561474  0.13995046     0.10500
H1540       H  0.05433691  0.90987760  0.10744485     0.11000
H1541       H  0.15279955  0.83890494  0.19798445     0.11100
H1542       H  0.19275078  0.83010390  0.22443952     0.11100
H1543       H  0.23764735  0.87997116  0.17148705     0.11200
H1544       H  0.19811454  0.88838112  0.14566800     0.10000
C1545       C  0.93809285  0.11096432  0.95580342    -0.03800
C1546       C  0.91051968  0.11227451  0.95909894    -0.09500
C1547       C  0.89584783  0.13202138  0.94659539    -0.17200
C1548       C  0.90852396  0.15071458  0.93070823     0.24900
C1549       C  0.93586784  0.14939579  0.92701830    -0.18900
C1550       C  0.95058490  0.12959535  0.93941242    -0.07800
C1551       C  0.89370343  0.17184754  0.91893767    -0.14200
C1552       C  0.88242780  0.19054399  0.90951203    -0.14000
C1553       C  0.87085283  0.21403884  0.89861591     0.24800
C1554       C  0.84933749  0.21242422  0.88135903    -0.19400
C1555       C  0.83902510  0.23538217  0.86994351    -0.07800
C1556       C  0.85025114  0.26019825  0.87560254    -0.03900
C1557       C  0.87157584  0.26157047  0.89336004    -0.09200
C1558       C  0.88176961  0.23864153  0.90476877    -0.16900
H1559       H  0.90029968  0.09822483  0.97158194     0.11300
H1560       H  0.87469476  0.13292676  0.94961710     0.10600
H1561       H  0.94586114  0.16388743  0.91483858     0.10500
H1562       H  0.97177380  0.12923665  0.93662579     0.11000
H1563       H  0.84077476  0.19343137  0.87646408     0.11100
H1564       H  0.82263734  0.23361843  0.85632137     0.11100
H1565       H  0.88063954  0.28032183  0.89822693     0.11200
H1566       H  0.89842786  0.24007297  0.91812559     0.10000
C1567       C  0.07913693  0.08755099  0.92335999    -0.03800
C1568       C  0.07568157  0.11493872  0.92011979    -0.09500
C1569       C  0.09470451  0.13000647  0.90696015    -0.17200
C1570       C  0.11743290  0.11799246  0.89678659     0.24900
C1571       C  0.12081335  0.09067586  0.89936349    -0.18900
C1572       C  0.10178833  0.07552921  0.91252582    -0.07800
C1573       C  0.13758008  0.13414819  0.88481629    -0.14200
C1574       C  0.15297837  0.15033226  0.87650251    -0.14000
C1575       C  0.16838993  0.17305181  0.86899240     0.24800
C1576       C  0.19369654  0.17057929  0.85802180    -0.19400
C1577       C  0.20842749  0.19326416  0.85178781    -0.07800
C1578       C  0.19797643  0.21859561  0.85662336    -0.03900
C1579       C  0.17242415  0.22064849  0.86741288    -0.09200
C1580       C  0.15784642  0.19813361  0.87349992    -0.16900
H1581       H  0.05854745  0.12484349  0.92821176     0.11300
H1582       H  0.09190154  0.15115646  0.90513084     0.10600
H1583       H  0.13833597  0.08115828  0.89162156     0.10500
H1584       H  0.10509785  0.05449739  0.91467010     0.11000
H1585       H  0.20209512  0.15121323  0.85451020     0.11100
H1586       H  0.22802866  0.19098733  0.84357875     0.11100
H1587       H  0.16358445  0.23972541  0.87134527     0.11200
H1588       H  0.13832719  0.20032148  0.88199236     0.10000
C1589       C  0.95204305  0.93667265  0.11269981    -0.03800
C1590       C  0.93343212  0.94874091  0.12943076    -0.09500
C1591       C  0.92129513  0.93419638  0.14951798    -0.17200
C1592       C  0.92751796  0.90747154  0.15297885     0.24900
C1593       C  0.94524260  0.89508509  0.13585103    -0.18900
C1594       C  0.95743280  0.90956022  0.11582010    -0.07800
C1595       C  0.91703086  0.89316714  0.17507150    -0.14200
C1596       C  0.90912067  0.88195505  0.19446938    -0.14000
C1597       C  0.89954354  0.87018656  0.21839591     0.24800
C1598       C  0.88698458  0.84559132  0.21780728    -0.19400
C1599       C  0.87559183  0.83537278  0.24078397    -0.07800
C1600       C  0.87659125  0.84974992  0.26457444    -0.03900
C1601       C  0.89036132  0.87389446  0.26515741    -0.09200
C1602       C  0.90169540  0.88404616  0.24218190    -0.16900
H1603       H  0.92886537  0.96956152  0.12754475     0.11300
H1604       H  0.90759466  0.94394392  0.16275529     0.10600
H1605       H  0.95016722  0.87440400  0.13840483     0.10500
H1606       H  0.97156933  0.89964082  0.10320563     0.11000
H1607       H  0.88537310  0.83466388  0.19947041     0.11100
H1608       H  0.86533414  0.81663723  0.23969532     0.11100
H1609       H  0.89167487  0.88540604  0.28314125     0.11200
H1610       H  0.91151464  0.90305603  0.24282182     0.10000
C1611       C  0.91805825  0.07654754  0.08920627    -0.03800
C1612       C  0.91005154  0.10082687  0.07816308    -0.09500
C1613       C  0.89612889  0.11925303  0.09333753    -0.17200
C1614       C  0.88986005  0.11359745  0.11965327     0.24900
C1615       C  0.89715480  0.08924845  0.13059596    -0.18900
C1616       C  0.91116554  0.07084271  0.11551544    -0.07800
C1617       C  0.87728929  0.13315059  0.13605150    -0.14200
C1618       C  0.86846362  0.14836563  0.15212535    -0.14000
C1619       C  0.86039027  0.16404052  0.17444566     0.24800
C1620       C  0.86216144  0.15295343  0.19965010    -0.19400
C1621       C  0.85648105  0.16811697  0.22189178    -0.07800
C1622       C  0.84886804  0.19476202  0.21938200    -0.03900
C1623       C  0.84628877  0.20564350  0.19391657    -0.09200
C1624       C  0.85217143  0.19034959  0.17152570    -0.16900
H1625       H  0.91510631  0.10588782  0.05799498     0.11300
H1626       H  0.89070122  0.13807652  0.08469998     0.10600
H1627       H  0.89246916  0.08469724  0.15098763     0.10500
H1628       H  0.91696304  0.05235131  0.12459457     0.11000
H1629       H  0.86849166  0.13264793  0.20217105     0.11100
H1630       H  0.85845753  0.15898005  0.24114511     0.11100
H1631       H  0.84055210  0.22609566  0.19136078     0.11200
H1632       H  0.85081428  0.19915751  0.15206223     0.10000
loop_ 
_geom_bond_atom_site_label_1 
_geom_bond_atom_site_label_2 
_geom_bond_distance 
_geom_bond_site_symmetry_2 
_ccdc_geom_bond_type 
C1            N2   1.358       .  A
C1            N6   1.359       .  A
C1          C569   1.468       .  S
N2            C3   1.361       .  A
C3            N4   1.357       .  A
C3          C171   1.469       .  S
N4            C5   1.360       .  A
C5            N6   1.356       .  A
C5          C303   1.468       .  S
C7            N8   1.359       .  A
C7           N12   1.356       .  A
C7          C105   1.465       .  S
N8            C9   1.357       .  A
C9           N10   1.358       .  A
C9          C555   1.466       .  S
N10          C11   1.357       .  A
C11          N12   1.359       .  A
C11         C165   1.465       .  S
C13          N14   1.359       .  A
C13          N18   1.356       .  A
C13         C489   1.464       .  S
N14          C15   1.358       .  A
C15          N16   1.359       .  A
C15         C239   1.467       .  S
N16          C17   1.356       .  A
C17          N18   1.357       .  A
C17         C357   1.465       .  S
C19          N20   1.359       .  A
C19          N24   1.362       .  A
C19         C429   1.469       .  S
N20          C21   1.359       .  A
C21          N22   1.356       .  A
C21         C231   1.468       .  S
N22          C23   1.359       .  A
C23          N24   1.359       .  A
C23         C363   1.470       .  S
C25          N26   1.358       .  A
C25          N30   1.357       .  A
C25         C161   1.469       .  S
N26          C27   1.358       .  A
C27          N28   1.359       .  A
C27         C299   1.465       .  S
N28          C29   1.357       .  A
C29          N30   1.360       .  A
C29         C101   1.466       .  S
C31          N32   1.356       .  A
C31          N36   1.358       .  A
C31         C423   1.468       .  S
N32          C33   1.360       .  A
C33          N34   1.359       .  A
C33         C371   1.466       .  S
N34          C35   1.359       .  A
C35          N36   1.357       .  A
C35         C501   1.468       .  S
C37          N38   1.358       .  A
C37          N42   1.358       .  A
C37         C437   1.465       .  S
N38          C39   1.359       .  A
C39          N40   1.356       .  A
C39         C495   1.466       .  S
N40          C41   1.358       .  A
C41          N42   1.356       .  A
C41         C227   1.463       .  S
O43         Mg45   2.137   1_546  S
O43         Mg51   2.146       .  S
O43          C78   1.236   1_556  S
C44          O57   1.237   1_655  S
C44          O81   1.270       .  A
C44          H83   1.081       .  S
Mg45         O74   2.148       .  S
Mg45         O89   2.305   1_554  S
Mg45         O85   2.274       .  S
Mg45         O56   2.297   1_565  S
O46         Mg88   2.149       .  S
O46         Mg71   2.133   1_654  S
O46          C67   1.236   1_655  S
O47          C78   1.270       .  A
O47         Mg71   2.296   1_554  S
C48        C1589   1.478       .  S
C48          O50   1.271       .  A
C48          O62   1.276       .  A
O49          C77   1.271       .  A
O49         Mg51   2.298   1_565  S
O50         Mg82   2.241   1_655  S
Mg51         O57   2.132       .  S
Mg51         O65   2.246   1_545  S
Mg51         O53   2.300       .  S
C52        C1611   1.482       .  S
C52          O90   1.274       .  A
C52          O58   1.274       .  A
O53          C60   1.275       .  A
H54          C67   1.081       .  S
C55          O69   1.237   1_565  S
C55          O70   1.271       .  A
C55          H80   1.081       .  S
O56          C79   1.270       .  A
O57         Mg71   2.152       .  S
O58         Mg88   2.295       .  S
C59        C1545   1.479       .  S
C59          O72   1.271       .  A
C59          O64   1.277       .  A
C60        C1567   1.484       .  S
C60          O87   1.275       .  A
Mg61         O68   2.136   1_645  S
Mg61         O69   2.152       .  S
Mg61         O62   2.306   1_545  S
Mg61         O63   2.296   1_655  S
Mg61         O90   2.271       .  S
O63          C67   1.270       .  A
O64         Mg71   2.311   1_655  S
O65          C84   1.271       .  A
O66          C86   1.275       .  A
O66         Mg82   2.303       .  S
O68         Mg82   2.148       .  S
O68          C79   1.236   1_565  S
O69         Mg88   2.135       .  S
O70         Mg82   2.297   1_655  S
Mg71         O87   2.274       .  S
O72         Mg88   2.245   1_556  S
H73          C78   1.081       .  S
O74         Mg82   2.129       .  S
O74          C77   1.238   1_554  S
H75          C77   1.081       .  S
H76          C79   1.081       .  S
O81         Mg88   2.294   1_556  S
C84        C1501   1.478       .  S
C84          O89   1.276       .  A
O85          C86   1.274       .  A
C86        C1523   1.485       .  S
C91          N92   1.363       .  A
C91          N96   1.357       .  A
C91        C1578   1.486       .  S
N92          C93   1.364       .  A
C93          N94   1.359       .  A
C93         C573   1.469       .  S
N94          C95   1.356       .  A
C95          N96   1.354       .  A
C95        C1479   1.481       .  S
C97          N98   1.356       .  A
C97         N102   1.363       .  A
C97        C1622   1.483       .  S
N98          C99   1.353       .  A
C99         N100   1.354       .  A
C99        C1457   1.476       .  S
N100        C101   1.357       .  A
C101        N102   1.364       .  A
C103        N104   1.363       .  A
C103        N108   1.357       .  A
C103       C1534   1.485       .  S
N104        C105   1.364       .  A
C105        N106   1.357       .  A
N106        C107   1.354       .  A
C107        N108   1.354       .  A
C107       C1435   1.478       .  S
O109       Mg111   2.138       .  S
O109       Mg117   2.146   1_455  S
O109        C144   1.237       .  S
C110        O123   1.236   1_655  S
C110        O147   1.270   1_655  A
C110        H149   1.081       .  S
Mg111       O140   2.154       .  S
Mg111       O155   2.322       .  S
Mg111       O151   2.275       .  S
Mg111       O122   2.299       .  S
O112       Mg154   2.149       .  S
O112       Mg137   2.133       .  S
O112        C133   1.237       .  S
O113        C144   1.271       .  A
O113       Mg137   2.300       .  S
C114       C1380   1.482       .  S
C114        O116   1.272       .  A
C114        O128   1.276       .  A
O115        C143   1.270       .  A
O115       Mg117   2.294   1_455  S
O116       Mg148   2.261       .  S
Mg117       O123   2.134   1_655  S
Mg117       O131   2.253       .  S
Mg117       O119   2.286       .  S
C118       C1347   1.478       .  S
C118        O156   1.272       .  A
C118        O124   1.274       .  A
O119        C126   1.274       .  A
H120        C133   1.081       .  S
C121        O135   1.237       .  S
C121        O136   1.271       .  A
C121        H146   1.081       .  S
O122        C145   1.271       .  A
O123       Mg137   2.150       .  S
O124       Mg154   2.288       .  S
C125       C1413   1.485   1_455  S
C125        O138   1.273       .  A
C125        O130   1.278       .  A
C126       C1402   1.480       .  S
C126        O153   1.274       .  A
Mg127       O134   2.133       .  S
Mg127       O135   2.153       .  S
Mg127       O128   2.305       .  S
Mg127       O129   2.298       .  S
Mg127       O156   2.260       .  S
O129        C133   1.271       .  A
O130       Mg137   2.317       .  S
O131        C150   1.272       .  A
O132        C152   1.274       .  A
O132       Mg148   2.283       .  S
O134       Mg148   2.145       .  S
O134        C145   1.237       .  S
O135       Mg154   2.137       .  S
O136       Mg148   2.298       .  S
Mg137       O153   2.272   1_455  S
O138       Mg154   2.264       .  S
H139        C144   1.081       .  S
O140       Mg148   2.129       .  S
O140        C143   1.237       .  S
H141        C143   1.081       .  S
H142        C145   1.081       .  S
O147       Mg154   2.294       .  S
C150       C1325   1.484       .  S
C150        O155   1.278   1_655  A
O151        C152   1.274       .  A
C152       C1303   1.480       .  S
C157        N158   1.358       .  A
C157        N162   1.361       .  A
C157       C1424   1.482       .  S
N158        C159   1.356       .  A
C159        N160   1.357       .  A
C159       C1281   1.483       .  S
N160        C161   1.359       .  A
C161        N162   1.362       .  A
C163        N164   1.361       .  A
C163        N168   1.356       .  A
C163       C1369   1.482       .  S
N164        C165   1.362       .  A
C165        N166   1.358       .  A
N166        C167   1.355       .  A
C167        N168   1.354       .  A
C167       C1259   1.478       .  S
C169        N170   1.364       .  A
C169        N174   1.356       .  A
C169       C1336   1.486       .  S
N170        C171   1.365       .  A
C171        N172   1.358       .  A
N172        C173   1.355       .  A
C173        N174   1.353       .  A
C173       C1237   1.480       .  S
O175       Mg177   2.131       .  S
O175       Mg183   2.148       .  S
O175        C210   1.237       .  S
C176        O189   1.236       .  S
C176        O213   1.269       .  A
C176        H215   1.081       .  S
Mg177       O206   2.156       .  S
Mg177       O221   2.316   1_545  S
Mg177       O217   2.263   1_445  S
Mg177       O188   2.299   1_455  S
O178       Mg220   2.145       .  S
O178       Mg203   2.128       .  S
O178        C199   1.237   1_455  S
O179        C210   1.271       .  A
O179       Mg203   2.298       .  S
C180       C1160   1.481       .  S
C180        O182   1.272       .  A
C180        O194   1.276   1_565  A
O181        C209   1.270   1_545  A
O181       Mg183   2.293       .  S
O182       Mg214   2.261       .  S
Mg183       O189   2.129       .  S
Mg183       O197   2.253       .  S
Mg183       O185   2.269       .  S
C184       C1468   1.476       .  S
C184        O222   1.273       .  A
C184        O190   1.273       .  A
O185        C192   1.272       .  A
H186        C199   1.081       .  S
C187        O201   1.237   1_455  S
C187        O202   1.270       .  A
C187        H212   1.081       .  S
O188        C211   1.270       .  A
O189       Mg203   2.155       .  S
O190       Mg220   2.281   1_655  S
C191       C1215   1.484       .  S
C191        O204   1.272       .  A
C191        O196   1.277       .  A
C192       C1193   1.477       .  S
C192        O219   1.273       .  A
Mg193       O200   2.138       .  S
Mg193       O201   2.149       .  S
Mg193       O194   2.306       .  S
Mg193       O195   2.298       .  S
Mg193       O222   2.268       .  S
O195        C199   1.271       .  A
O196       Mg203   2.316       .  S
O197        C216   1.271       .  A
O198        C218   1.275       .  A
O198       Mg214   2.291       .  S
O200       Mg214   2.148   1_545  S
O200        C211   1.236       .  S
O201       Mg220   2.135   1_655  S
O202       Mg214   2.298   1_445  S
Mg203       O219   2.270       .  S
O204       Mg220   2.260       .  S
H205        C210   1.081       .  S
O206       Mg214   2.132   1_445  S
O206        C209   1.237   1_545  S
H207        C209   1.081       .  S
H208        C211   1.081       .  S
O213       Mg220   2.291       .  S
C216       C1182   1.483   1_545  S
C216        O221   1.277   1_545  A
O217        C218   1.273       .  A
C218       C1248   1.479       .  S
C223        N224   1.358       .  A
C223        N228   1.362       .  A
C223       C1171   1.484       .  S
N224        C225   1.355       .  A
C225        N226   1.354       .  A
C225       C1314   1.479       .  S
N226        C227   1.356       .  A
C227        N228   1.362       .  A
C229        N230   1.361       .  A
C229        N234   1.355       .  A
C229       C1226   1.478       .  S
N230        C231   1.363       .  A
C231        N232   1.360       .  A
N232        C233   1.358       .  A
C233        N234   1.354       .  A
C233       C1138   1.481       .  S
C235        N236   1.357       .  A
C235        N240   1.361       .  A
C235       C1149   1.479       .  S
N236        C237   1.355       .  A
C237        N238   1.355       .  A
C237       C1600   1.479       .  S
N238        C239   1.357       .  A
C239        N240   1.362       .  A
O241       Mg243   2.145       .  S
O241       Mg249   2.150       .  S
O241        C276   1.236       .  S
C242        O255   1.236       .  S
C242        O279   1.270       .  A
C242        H281   1.081       .  S
Mg243       O272   2.156       .  S
Mg243       O287   2.319       .  S
Mg243       O283   2.275   1_554  S
Mg243       O254   2.296       .  S
O244       Mg286   2.153       .  S
O244       Mg269   2.136       .  S
O244        C265   1.237       .  S
O245        C276   1.271       .  A
O245       Mg269   2.302       .  S
C246       C1017   1.487       .  S
C246        O248   1.274       .  A
C246        O260   1.277   1_556  A
O247        C275   1.270   1_554  A
O247       Mg249   2.294       .  S
O248       Mg280   2.275       .  S
Mg249       O255   2.133       .  S
Mg249       O263   2.250       .  S
Mg249       O251   2.289       .  S
C250        C995   1.477       .  S
C250        O288   1.272       .  A
C250        O256   1.273       .  A
O251        C258   1.274       .  A
H252        C265   1.081       .  S
C253        O267   1.237       .  S
C253        O268   1.270       .  A
C253        H278   1.081       .  S
O254        C277   1.270       .  A
O255       Mg269   2.152       .  S
O256       Mg286   2.283       .  S
C257       C1072   1.482       .  S
C257        O270   1.271       .  A
C257        O262   1.276       .  A
C258       C1050   1.480       .  S
C258        O285   1.273       .  A
Mg259       O266   2.127       .  S
Mg259       O267   2.154       .  S
Mg259       O260   2.311       .  S
Mg259       O261   2.299       .  S
Mg259       O288   2.261       .  S
O261        C265   1.271       .  A
O262       Mg269   2.310       .  S
O263        C282   1.271       .  A
O264        C284   1.274       .  A
O264       Mg280   2.282       .  S
O266       Mg280   2.146   1_554  S
O266        C277   1.237       .  S
O267       Mg286   2.132       .  S
O268       Mg280   2.292   1_554  S
Mg269       O285   2.271       .  S
O270       Mg286   2.254       .  S
H271        C276   1.081       .  S
O272       Mg280   2.138   1_554  S
O272        C275   1.236   1_554  S
H273        C275   1.081       .  S
H274        C277   1.081       .  S
O279       Mg286   2.296       .  S
C282       C1105   1.483   1_554  S
C282        O287   1.278       .  A
O283        C284   1.274       .  A
C284       C1094   1.479       .  S
C289        N290   1.357       .  A
C289        N294   1.361       .  A
C289       C1116   1.484       .  S
N290        C291   1.355       .  A
C291        N292   1.358       .  A
C291        C984   1.484       .  S
N292        C293   1.360       .  A
C293        N294   1.362       .  A
C293        C575   1.468       .  S
C295        N296   1.356       .  A
C295        N300   1.360       .  A
C295       C1061   1.481       .  S
N296        C297   1.355       .  A
C297        N298   1.357       .  A
C297        C962   1.480       .  S
N298        C299   1.359       .  A
C299        N300   1.361       .  A
C301        N302   1.365       .  A
C301        N306   1.356       .  A
C301       C1028   1.488       .  S
N302        C303   1.366       .  A
C303        N304   1.357       .  A
N304        C305   1.354       .  A
C305        N306   1.353       .  A
C305        C929   1.478       .  S
O307       Mg309   2.135       .  S
O307       Mg315   2.144       .  S
O307        C342   1.237   1_554  S
C308        O321   1.237   1_554  S
C308        O345   1.270       .  A
C308        H347   1.081       .  S
Mg309       O338   2.150       .  S
Mg309       O353   2.308       .  S
Mg309       O349   2.265       .  S
Mg309       O320   2.298       .  S
O310       Mg352   2.146   1_455  S
O310       Mg335   2.135       .  S
O310        C331   1.237       .  S
O311        C342   1.271       .  A
O311       Mg335   2.302       .  S
C312        C896   1.482   1_455  S
C312        O314   1.272       .  A
C312        O326   1.277   1_455  A
O313        C341   1.271       .  A
O313       Mg315   2.297       .  S
O314       Mg346   2.256       .  S
Mg315       O321   2.135   1_554  S
Mg315       O329   2.268       .  S
Mg315       O317   2.295   1_554  S
C316        C940   1.478       .  S
C316        O354   1.273       .  A
C316        O322   1.273       .  A
O317        C324   1.275       .  A
H318        C331   1.081       .  S
C319        O333   1.236   1_655  S
C319        O334   1.270   1_655  A
C319        H344   1.081       .  S
O320        C343   1.271       .  A
O321       Mg335   2.148       .  S
O322       Mg352   2.278       .  S
C323        C874   1.485       .  S
C323        O336   1.272       .  A
C323        O328   1.278   1_655  A
C324       C1490   1.478       .  S
C324        O351   1.274       .  A
Mg325       O332   2.133       .  S
Mg325       O333   2.152       .  S
Mg325       O326   2.312   1_455  S
Mg325       O327   2.299   1_554  S
Mg325       O354   2.269   1_454  S
O327        C331   1.271       .  A
O328       Mg335   2.323       .  S
O329        C348   1.273       .  A
O330        C350   1.274       .  A
O330       Mg346   2.289       .  S
O332       Mg346   2.146       .  S
O332        C343   1.237       .  S
O333       Mg352   2.131   1_454  S
O334       Mg346   2.294       .  S
Mg335       O351   2.268       .  S
O336       Mg352   2.256       .  S
H337        C342   1.081       .  S
O338       Mg346   2.133       .  S
O338        C341   1.237       .  S
H339        C341   1.081       .  S
H340        C343   1.081       .  S
O345       Mg352   2.295   1_454  S
C348        C918   1.484       .  S
C348        O353   1.276       .  A
O349        C350   1.273       .  A
C350       C1270   1.479       .  S
C355        N356   1.361       .  A
C355        N360   1.354       .  A
C355        C885   1.482       .  S
N356        C357   1.363       .  A
C357        N358   1.359       .  A
N358        C359   1.356       .  A
C359        N360   1.353       .  A
C359       C1006   1.479       .  S
C361        N362   1.364       .  A
C361        N366   1.356       .  A
C361        C907   1.482       .  S
N362        C363   1.365       .  A
C363        N364   1.358       .  A
N364        C365   1.354       .  A
C365        N366   1.353       .  A
C365       C1358   1.478       .  S
C367        N368   1.358       .  A
C367        N372   1.363       .  A
C367        C863   1.486       .  S
N368        C369   1.355       .  A
C369        N370   1.355       .  A
C369       C1556   1.480       .  S
N370        C371   1.357       .  A
C371        N372   1.363       .  A
O373       Mg375   2.130       .  S
O373       Mg381   2.147   1_554  S
O373        C408   1.237       .  S
C374        O387   1.237   1_556  S
C374        O411   1.270   1_556  A
C374        H413   1.081       .  S
Mg375       O404   2.151       .  S
Mg375       O419   2.312       .  S
Mg375       O415   2.270       .  S
Mg375       O386   2.303       .  S
O376       Mg418   2.149       .  S
O376       Mg401   2.135       .  S
O376        C397   1.237       .  S
O377        C408   1.270       .  A
O377       Mg401   2.297   1_565  S
C378        C841   1.486       .  S
C378        O380   1.272       .  A
C378        O392   1.278       .  A
O379        C407   1.270   1_556  A
O379       Mg381   2.296   1_545  S
O380       Mg412   2.258       .  S
Mg381       O387   2.128   1_566  S
Mg381       O395   2.257       .  S
Mg381       O383   2.287       .  S
C382        C951   1.480       .  S
C382        O420   1.274       .  A
C382        O388   1.274       .  A
O383        C390   1.274       .  A
H384        C397   1.081       .  S
C385        O399   1.237       .  S
C385        O400   1.270       .  A
C385        H410   1.081       .  S
O386        C409   1.272       .  A
O387       Mg401   2.152       .  S
O388       Mg418   2.283       .  S
C389        C819   1.484   1_554  S
C389        O402   1.273       .  A
C389        O394   1.276       .  A
C390        C797   1.480       .  S
C390        O417   1.273       .  A
Mg391       O398   2.135       .  S
Mg391       O399   2.154       .  S
Mg391       O392   2.323       .  S
Mg391       O393   2.299       .  S
Mg391       O420   2.274       .  S
O393        C397   1.271       .  A
O394       Mg401   2.306       .  S
O395        C414   1.272       .  A
O396        C416   1.272       .  A
O396       Mg412   2.272   1_565  S
O398       Mg412   2.146       .  S
O398        C409   1.238   1_545  S
O399       Mg418   2.133       .  S
O400       Mg412   2.293       .  S
Mg401       O417   2.271   1_544  S
O402       Mg418   2.266       .  S
H403        C408   1.081       .  S
O404       Mg412   2.134   1_565  S
O404        C407   1.236   1_565  S
H405        C407   1.081       .  S
H406        C409   1.081       .  S
O411       Mg418   2.292       .  S
C414        C775   1.482       .  S
C414        O419   1.277   1_556  A
O415        C416   1.273       .  A
C416       C1446   1.474       .  S
C421        N422   1.364       .  A
C421        N426   1.357       .  A
C421        C830   1.487       .  S
N422        C423   1.365       .  A
C423        N424   1.356       .  A
N424        C425   1.353       .  A
C425        N426   1.354       .  A
C425        C753   1.477       .  S
C427        N428   1.363       .  A
C427        N432   1.354       .  A
C427        C852   1.485       .  S
N428        C429   1.366       .  A
C429        N430   1.360       .  A
N430        C431   1.357       .  A
C431        N432   1.352       .  A
C431       C1039   1.481       .  S
C433        N434   1.358       .  A
C433        N438   1.360       .  A
C433        C786   1.481       .  S
N434        C435   1.356       .  A
C435        N436   1.356       .  A
C435       C1512   1.480       .  S
N436        C437   1.357       .  A
C437        N438   1.359       .  A
O439       Mg441   2.135       .  S
O439       Mg447   2.150       .  S
O439        C474   1.237       .  S
C440        O453   1.236       .  S
C440        O477   1.269       .  A
C440        H479   1.081       .  S
Mg441       O470   2.152       .  S
Mg441       O485   2.317       .  S
Mg441       O481   2.268       .  S
Mg441       O452   2.305       .  S
O442       Mg484   2.153       .  S
O442       Mg467   2.147       .  S
O442        C463   1.237       .  S
O443        C474   1.271       .  A
O443       Mg467   2.298       .  S
C444        C676   1.484       .  S
C444        O446   1.272       .  A
C444        O458   1.278       .  A
O445        C473   1.270       .  A
O445       Mg447   2.293       .  S
O446       Mg478   2.252       .  S
Mg447       O453   2.125       .  S
Mg447       O461   2.248       .  S
Mg447       O449   2.276       .  S
C448        C973   1.484       .  S
C448        O486   1.275       .  A
C448        O454   1.274       .  A
O449        C456   1.273       .  A
H450        C463   1.081       .  S
C451        O465   1.236       .  S
C451        O466   1.270       .  A
C451        H476   1.081       .  S
O452        C475   1.272       .  A
O453       Mg467   2.153       .  S
O454       Mg484   2.288       .  S
C455        C731   1.483       .  S
C455        O468   1.272       .  A
C455        O460   1.278       .  A
C456       C1292   1.484       .  S
C456        O483   1.276       .  A
Mg457       O464   2.150       .  S
Mg457       O465   2.151       .  S
Mg457       O458   2.323       .  S
Mg457       O459   2.302       .  S
Mg457       O486   2.289       .  S
O459        C463   1.271       .  A
O460       Mg467   2.319       .  S
O461        C480   1.271       .  A
O462        C482   1.274       .  A
O462       Mg478   2.291       .  S
O464       Mg478   2.153       .  S
O464        C475   1.237       .  S
O465       Mg484   2.136       .  S
O466       Mg478   2.296       .  S
Mg467       O483   2.292       .  S
O468       Mg484   2.254       .  S
H469        C474   1.081       .  S
O470       Mg478   2.133       .  S
O470        C473   1.236       .  S
H471        C473   1.081       .  S
H472        C475   1.081       .  S
O477       Mg484   2.289       .  S
C480        C709   1.483       .  S
C480        O485   1.277       .  A
O481        C482   1.273       .  A
C482        C698   1.481       .  S
C487        N488   1.361       .  A
C487        N492   1.357       .  A
C487        C720   1.484       .  S
N488        C489   1.361       .  A
C489        N490   1.357       .  A
N490        C491   1.356       .  A
C491        N492   1.355       .  A
C491        C643   1.479       .  S
C493        N494   1.362       .  A
C493        N498   1.357       .  A
C493        C665   1.485       .  S
N494        C495   1.363       .  A
C495        N496   1.357       .  A
N496        C497   1.355       .  A
C497        N498   1.355       .  A
C497       C1083   1.479       .  S
C499        N500   1.361       .  A
C499        N504   1.356       .  A
C499        C742   1.485       .  S
N500        C501   1.362       .  A
C501        N502   1.360       .  A
N502        C503   1.358       .  A
C503        N504   1.355       .  A
C503       C1391   1.482       .  S
O505       Mg507   2.132       .  S
O505       Mg513   2.148       .  S
O505        C540   1.238       .  S
C506        O519   1.237       .  S
C506        O543   1.270       .  A
C506        H545   1.081       .  S
Mg507       O536   2.151       .  S
Mg507       O551   2.312       .  S
Mg507       O547   2.262       .  S
Mg507       O518   2.301       .  S
O508       Mg550   2.143   1_545  S
O508       Mg533   2.128       .  S
O508        C529   1.237       .  S
O509        C540   1.271       .  A
O509       Mg533   2.301       .  S
C510        C632   1.483   1_545  S
C510        O512   1.272       .  A
C510        O524   1.278       .  A
O511        C539   1.270       .  A
O511       Mg513   2.295       .  S
O512       Mg544   2.253       .  S
Mg513       O519   2.132       .  S
Mg513       O527   2.264       .  S
Mg513       O515   2.276       .  S
C514        C654   1.479       .  S
C514        O552   1.275       .  A
C514        O520   1.273       .  A
O515        C522   1.273       .  A
H516        C529   1.081       .  S
C517        O531   1.236   1_565  S
C517        O532   1.269   1_565  A
C517        H542   1.081       .  S
O518        C541   1.271       .  A
O519       Mg533   2.153       .  S
O520       Mg550   2.277       .  S
C521        C577   1.486       .  S
C521        O534   1.272       .  A
C521        O526   1.277   1_565  A
C522        C764   1.475       .  S
C522        O549   1.272       .  A
Mg523       O530   2.141       .  S
Mg523       O531   2.152       .  S
Mg523       O524   2.320       .  S
Mg523       O525   2.298       .  S
Mg523       O552   2.280   1_545  S
O525        C529   1.271       .  A
O526       Mg533   2.319       .  S
O527        C546   1.272       .  A
O528        C548   1.275       .  A
O528       Mg544   2.292       .  S
O530       Mg544   2.150       .  S
O530        C541   1.237       .  S
O531       Mg550   2.131   1_545  S
O532       Mg544   2.293       .  S
Mg533       O549   2.259       .  S
O534       Mg550   2.262       .  S
H535        C540   1.081       .  S
O536       Mg544   2.133       .  S
O536        C539   1.236       .  S
H537        C539   1.081       .  S
H538        C541   1.081       .  S
O543       Mg550   2.293   1_545  S
C546        C610   1.485       .  S
C546        O551   1.276       .  A
O547        C548   1.272       .  A
C548       C1127   1.479       .  S
C553        N554   1.361       .  A
C553        N558   1.358       .  A
C553        C621   1.483       .  S
N554        C555   1.362       .  A
C555        N556   1.358       .  A
N556        C557   1.356       .  A
C557        N558   1.356       .  A
C557        C687   1.481       .  S
C559        N560   1.356       .  A
C559        N564   1.363       .  A
C559        C599   1.486       .  S
N560        C561   1.354       .  A
C561        N562   1.355       .  A
C561       C1204   1.479       .  S
N562        C563   1.358       .  A
C563        N564   1.364       .  A
C563        C571   1.468       .  S
C565        N566   1.357       .  A
C565        N570   1.364       .  A
C565        C588   1.487       .  S
N566        C567   1.354       .  A
C567        N568   1.355       .  A
C567        C808   1.481       .  S
N568        C569   1.358       .  A
C569        N570   1.364       .  A
C571        N572   1.360       .  A
C571        N576   1.358       .  A
N572        C573   1.357       .  A
C573        N574   1.359       .  A
N574        C575   1.358       .  A
C575        N576   1.359       .  A
C577        C578   1.408       .  A
C577        C582   1.409       .  A
C578        H591   1.083   1_565  S
C578        C579   1.400       .  A
C579        H592   1.083       .  S
C579        C580   1.401       .  A
C580        C581   1.399       .  A
C580        C583   1.443       .  S
C581        H593   1.083       .  S
C581        C582   1.399       .  A
C582        H594   1.083       .  S
C583        C584   1.208       .  T
C584        C585   1.443       .  S
C585        C586   1.403       .  A
C585        C590   1.396       .  A
C586        H595   1.083       .  S
C586        C587   1.405       .  A
C587        H596   1.083       .  S
C587        C588   1.408       .  A
C588        C589   1.409       .  A
C589        H597   1.083       .  S
C589        C590   1.394       .  A
C590        H598   1.084       .  S
C599        C600   1.408       .  A
C599        C604   1.409       .  A
C600        H613   1.083       .  S
C600        C601   1.405       .  A
C601        H614   1.083       .  S
C601        C602   1.403       .  A
C602        C603   1.396       .  A
C602        C605   1.441       .  S
C603        H615   1.084       .  S
C603        C604   1.393       .  A
C604        H616   1.083       .  S
C605        C606   1.207       .  T
C606        C607   1.442       .  S
C607        C608   1.400       .  A
C607        C612   1.399       .  A
C608        H617   1.084       .  S
C608        C609   1.399       .  A
C609        H618   1.083       .  S
C609        C610   1.408       .  A
C610        C611   1.409       .  A
C611        H619   1.083       .  S
C611        C612   1.400       .  A
C612        H620   1.083       .  S
C621        C622   1.408       .  A
C621        C626   1.408       .  A
C622        H635   1.083       .  S
C622        C623   1.393       .  A
C623        H636   1.084       .  S
C623        C624   1.397       .  A
C624        C625   1.402       .  A
C624        C627   1.439       .  S
C625        H637   1.083       .  S
C625        C626   1.403       .  A
C626        H638   1.083       .  S
C627        C628   1.206       .  T
C628        C629   1.440       .  S
C629        C630   1.398       .  A
C629        C634   1.401       .  A
C630        H639   1.084       .  S
C630        C631   1.398       .  A
C631        H640   1.083   1_565  S
C631        C632   1.409       .  A
C632        C633   1.407       .  A
C633        H641   1.083       .  S
C633        C634   1.399       .  A
C634        H642   1.084       .  S
C643        C644   1.408       .  A
C643        C648   1.407       .  A
C644        H657   1.083       .  S
C644        C645   1.398       .  A
C645        H658   1.083       .  S
C645        C646   1.399       .  A
C646        C647   1.398       .  A
C646        C649   1.435       .  S
C647        H659   1.084       .  S
C647        C648   1.395       .  A
C648        H660   1.083       .  S
C649        C650   1.203       .  T
C650        C651   1.435       .  S
C651        C652   1.397       .  A
C651        C656   1.401       .  A
C652        H661   1.084       .  S
C652        C653   1.394       .  A
C653        H662   1.083       .  S
C653        C654   1.408       .  A
C654        C655   1.406       .  A
C655        H663   1.083       .  S
C655        C656   1.400       .  A
C656        H664   1.083       .  S
C665        C666   1.409       .  A
C665        C670   1.409       .  A
C666        H679   1.083       .  S
C666        C667   1.394       .  A
C667        H680   1.084       .  S
C667        C668   1.397       .  A
C668        C669   1.402       .  A
C668        C671   1.440       .  S
C669        H681   1.083       .  S
C669        C670   1.404       .  A
C670        H682   1.083       .  S
C671        C672   1.206       .  T
C672        C673   1.440       .  S
C673        C674   1.398       .  A
C673        C678   1.401       .  A
C674        H683   1.084       .  S
C674        C675   1.398       .  A
C675        H684   1.083       .  S
C675        C676   1.410       .  A
C676        C677   1.407       .  A
C677        H685   1.083       .  S
C677        C678   1.399       .  A
C678        H686   1.084       .  S
C687        C688   1.407       .  A
C687        C692   1.408       .  A
C688        H701   1.083       .  S
C688        C689   1.395       .  A
C689        H702   1.084       .  S
C689        C690   1.398       .  A
C690        C691   1.399       .  A
C690        C693   1.437       .  S
C691        H703   1.083       .  S
C691        C692   1.399       .  A
C692        H704   1.083       .  S
C693        C694   1.204       .  T
C694        C695   1.437       .  S
C695        C696   1.397       .  A
C695        C700   1.400       .  A
C696        H705   1.084       .  S
C696        C697   1.395       .  A
C697        H706   1.083       .  S
C697        C698   1.408       .  A
C698        C699   1.408       .  A
C699        H707   1.083       .  S
C699        C700   1.400       .  A
C700        H708   1.083       .  S
C709        C710   1.407       .  A
C709        C714   1.409       .  A
C710        H723   1.083       .  S
C710        C711   1.399       .  A
C711        H724   1.084       .  S
C711        C712   1.400       .  A
C712        C713   1.398       .  A
C712        C715   1.439       .  S
C713        H725   1.084       .  S
C713        C714   1.398       .  A
C714        H726   1.083       .  S
C715        C716   1.205       .  T
C716        C717   1.438       .  S
C717        C718   1.401       .  A
C717        C722   1.396       .  A
C718        H727   1.083       .  S
C718        C719   1.403       .  A
C719        H728   1.083       .  S
C719        C720   1.409       .  A
C720        C721   1.408       .  A
C721        H729   1.083       .  S
C721        C722   1.393       .  A
C722        H730   1.084       .  S
C731        C732   1.407       .  A
C731        C736   1.409       .  A
C732        H745   1.083       .  S
C732        C733   1.400       .  A
C733        H746   1.084       .  S
C733        C734   1.401       .  A
C734        C735   1.398       .  A
C734        C737   1.440       .  S
C735        H747   1.084       .  S
C735        C736   1.397       .  A
C736        H748   1.083       .  S
C737        C738   1.206       .  T
C738        C739   1.439       .  S
C739        C740   1.402       .  A
C739        C744   1.396       .  A
C740        H749   1.083       .  S
C740        C741   1.403       .  A
C741        H750   1.083       .  S
C741        C742   1.408       .  A
C742        C743   1.409       .  A
C743        H751   1.083       .  S
C743        C744   1.393       .  A
C744        H752   1.084       .  S
C753        C754   1.407       .  A
C753        C758   1.408       .  A
C754        H767   1.083       .  S
C754        C755   1.393       .  A
C755        H768   1.084       .  S
C755        C756   1.397       .  A
C756        C757   1.398       .  A
C756        C759   1.431       .  S
C757        H769   1.083       .  S
C757        C758   1.397       .  A
C758        H770   1.083       .  S
C759        C760   1.201       .  T
C760        C761   1.431       .  S
C761        C762   1.399       .  A
C761        C766   1.397       .  A
C762        H771   1.083       .  S
C762        C763   1.398       .  A
C763        H772   1.083       .  S
C763        C764   1.407       .  A
C764        C765   1.407       .  A
C765        H773   1.083       .  S
C765        C766   1.392       .  A
C766        H774   1.084       .  S
C775        C776   1.409       .  A
C775        C780   1.407       .  A
C776        H789   1.083       .  S
C776        C777   1.399       .  A
C777        H790   1.083       .  S
C777        C778   1.399       .  A
C778        C779   1.399       .  A
C778        C781   1.438       .  S
C779        H791   1.084       .  S
C779        C780   1.397       .  A
C780        H792   1.083   1_556  S
C781        C782   1.205       .  T
C782        C783   1.438       .  S
C783        C784   1.398       .  A
C783        C788   1.400       .  A
C784        H793   1.084       .  S
C784        C785   1.394       .  A
C785        H794   1.083       .  S
C785        C786   1.407       .  A
C786        C787   1.408       .  A
C787        H795   1.083       .  S
C787        C788   1.401       .  A
C788        H796   1.083       .  S
C797        C798   1.408       .  A
C797        C802   1.408       .  A
C798        H811   1.083       .  S
C798        C799   1.400       .  A
C799        H812   1.083       .  S
C799        C800   1.400       .  A
C800        C801   1.397       .  A
C800        C803   1.436       .  S
C801        H813   1.084       .  S
C801        C802   1.394       .  A
C802        H814   1.083       .  S
C803        C804   1.204       .  T
C804        C805   1.436       .  S
C805        C806   1.400       .  A
C805        C810   1.397       .  A
C806        H815   1.083       .  S
C806        C807   1.400       .  A
C807        H816   1.083       .  S
C807        C808   1.409       .  A
C808        C809   1.407       .  A
C809        H817   1.083       .  S
C809        C810   1.394       .  A
C810        H818   1.084       .  S
C819        C820   1.408       .  A
C819        C824   1.408       .  A
C820        H833   1.083   1_556  S
C820        C821   1.399       .  A
C821        H834   1.083       .  S
C821        C822   1.399       .  A
C822        C823   1.400       .  A
C822        C825   1.442       .  S
C823        H835   1.084       .  S
C823        C824   1.399       .  A
C824        H836   1.083       .  S
C825        C826   1.207       .  T
C826        C827   1.441       .  S
C827        C828   1.396       .  A
C827        C832   1.403       .  A
C828        H837   1.084       .  S
C828        C829   1.394       .  A
C829        H838   1.083       .  S
C829        C830   1.410       .  A
C830        C831   1.408       .  A
C831        H839   1.083       .  S
C831        C832   1.404       .  A
C832        H840   1.083       .  S
C841        C842   1.407       .  A
C841        C846   1.410       .  A
C842        H855   1.083       .  S
C842        C843   1.399       .  A
C843        H856   1.084       .  S
C843        C844   1.401       .  A
C844        C845   1.399       .  A
C844        C847   1.443       .  S
C845        H857   1.083       .  S
C845        C846   1.400       .  A
C846        H858   1.083       .  S
C847        C848   1.208       .  T
C848        C849   1.442       .  S
C849        C850   1.396       .  A
C849        C854   1.404       .  A
C850        H859   1.084       .  S
C850        C851   1.392       .  A
C851        H860   1.083       .  S
C851        C852   1.409       .  A
C852        C853   1.408       .  A
C853        H861   1.083       .  S
C853        C854   1.406       .  A
C854        H862   1.083       .  S
C863        C864   1.409       .  A
C863        C868   1.409       .  A
C864        H877   1.083       .  S
C864        C865   1.404       .  A
C865        H878   1.083       .  S
C865        C866   1.402       .  A
C866        C867   1.397       .  A
C866        C869   1.441       .  S
C867        H879   1.084       .  S
C867        C868   1.394       .  A
C868        H880   1.083       .  S
C869        C870   1.207       .  T
C870        C871   1.442       .  S
C871        C872   1.401       .  A
C871        C876   1.399       .  A
C872        H881   1.084       .  S
C872        C873   1.400       .  A
C873        H882   1.083   1_655  S
C873        C874   1.407       .  A
C874        C875   1.410       .  A
C875        H883   1.083       .  S
C875        C876   1.399       .  A
C876        H884   1.083       .  S
C885        C886   1.409       .  A
C885        C890   1.408       .  A
C886        H899   1.083       .  S
C886        C887   1.391       .  A
C887        H900   1.084       .  S
C887        C888   1.395       .  A
C888        C889   1.402       .  A
C888        C891   1.437       .  S
C889        H901   1.083       .  S
C889        C890   1.403       .  A
C890        H902   1.083       .  S
C891        C892   1.205       .  T
C892        C893   1.438       .  S
C893        C894   1.398       .  A
C893        C898   1.400       .  A
C894        H903   1.084       .  S
C894        C895   1.398       .  A
C895        H904   1.083   1_655  S
C895        C896   1.409       .  A
C896        C897   1.407       .  A
C897        H905   1.083       .  S
C897        C898   1.398       .  A
C898        H906   1.084       .  S
C907        C908   1.409       .  A
C907        C912   1.406       .  A
C908        H921   1.083       .  S
C908        C909   1.394       .  A
C909        H922   1.084       .  S
C909        C910   1.397       .  A
C910        C911   1.403       .  A
C910        C913   1.441       .  S
C911        H923   1.083       .  S
C911        C912   1.404       .  A
C912        H924   1.083       .  S
C913        C914   1.207       .  T
C914        C915   1.442       .  S
C915        C916   1.399       .  A
C915        C920   1.400       .  A
C916        H925   1.083       .  S
C916        C917   1.400       .  A
C917        H926   1.083       .  S
C917        C918   1.409       .  A
C918        C919   1.408       .  A
C919        H927   1.083       .  S
C919        C920   1.399       .  A
C920        H928   1.084       .  S
C929        C930   1.407       .  A
C929        C934   1.408       .  A
C930        H943   1.083       .  S
C930        C931   1.393       .  A
C931        H944   1.084       .  S
C931        C932   1.397       .  A
C932        C933   1.399       .  A
C932        C935   1.433       .  S
C933        H945   1.083       .  S
C933        C934   1.399       .  A
C934        H946   1.083       .  S
C935        C936   1.202       .  T
C936        C937   1.433       .  S
C937        C938   1.400       .  A
C937        C942   1.396       .  A
C938        H947   1.083       .  S
C938        C939   1.399       .  A
C939        H948   1.083       .  S
C939        C940   1.407       .  A
C940        C941   1.408       .  A
C941        H949   1.083       .  S
C941        C942   1.393       .  A
C942        H950   1.084       .  S
C951        C952   1.408       .  A
C951        C956   1.407       .  A
C952        H965   1.083       .  S
C952        C953   1.394       .  A
C953        H966   1.084       .  S
C953        C954   1.397       .  A
C954        C955   1.401       .  A
C954        C957   1.436       .  S
C955        H967   1.083       .  S
C955        C956   1.400       .  A
C956        H968   1.083       .  S
C957        C958   1.204       .  T
C958        C959   1.436       .  S
C959        C960   1.397       .  A
C959        C964   1.400       .  A
C960        H969   1.084       .  S
C960        C961   1.394       .  A
C961        H970   1.083       .  S
C961        C962   1.408       .  A
C962        C963   1.408       .  A
C963        H971   1.083       .  S
C963        C964   1.400       .  A
C964        H972   1.083       .  S
C973        C974   1.408       .  A
C973        C978   1.409       .  A
C974        H987   1.083       .  S
C974        C975   1.402       .  A
C975        H988   1.083       .  S
C975        C976   1.401       .  A
C976        C977   1.398       .  A
C976        C979   1.441       .  S
C977        H989   1.084       .  S
C977        C978   1.396       .  A
C978        H990   1.083       .  S
C979        C980   1.206       .  T
C980        C981   1.440       .  S
C981        C982   1.401       .  A
C981        C986   1.398       .  A
C982        H991   1.083       .  S
C982        C983   1.401       .  A
C983        H992   1.083       .  S
C983        C984   1.408       .  A
C984        C985   1.408       .  A
C985        H993   1.083       .  S
C985        C986   1.396       .  A
C986        H994   1.084       .  S
C995        C996   1.407       .  A
C995       C1000   1.407       .  A
C996       H1009   1.083       .  S
C996        C997   1.394       .  A
C997       H1010   1.084       .  S
C997        C998   1.398       .  A
C998        C999   1.399       .  A
C998       C1001   1.434       .  S
C999       H1011   1.083       .  S
C999       C1000   1.398       .  A
C1000      H1012   1.083       .  S
C1001      C1002   1.202       .  T
C1002      C1003   1.434       .  S
C1003      C1004   1.400       .  A
C1003      C1008   1.396       .  A
C1004      H1013   1.083       .  S
C1004      C1005   1.400       .  A
C1005      H1014   1.083       .  S
C1005      C1006   1.408       .  A
C1006      C1007   1.407       .  A
C1007      H1015   1.083       .  S
C1007      C1008   1.391       .  A
C1008      H1016   1.084       .  S
C1017      C1018   1.409       .  A
C1017      C1022   1.408       .  A
C1018      H1031   1.083       .  S
C1018      C1019   1.401       .  A
C1019      H1032   1.083       .  S
C1019      C1020   1.400       .  A
C1020      C1021   1.401       .  A
C1020      C1023   1.444       .  S
C1021      H1033   1.084       .  S
C1021      C1022   1.400       .  A
C1022      H1034   1.083   1_556  S
C1023      C1024   1.209       .  T
C1024      C1025   1.444       .  S
C1025      C1026   1.404       .  A
C1025      C1030   1.396       .  A
C1026      H1035   1.083       .  S
C1026      C1027   1.406       .  A
C1027      H1036   1.083       .  S
C1027      C1028   1.408       .  A
C1028      C1029   1.410       .  A
C1029      H1037   1.083       .  S
C1029      C1030   1.394       .  A
C1030      H1038   1.084       .  S
C1039      C1040   1.409       .  A
C1039      C1044   1.407       .  A
C1040      H1053   1.083       .  S
C1040      C1041   1.393       .  A
C1041      H1054   1.084       .  S
C1041      C1042   1.396       .  A
C1042      C1043   1.401       .  A
C1042      C1045   1.436       .  S
C1043      H1055   1.083       .  S
C1043      C1044   1.400       .  A
C1044      H1056   1.083       .  S
C1045      C1046   1.204       .  T
C1046      C1047   1.436       .  S
C1047      C1048   1.400       .  A
C1047      C1052   1.397       .  A
C1048      H1057   1.083       .  S
C1048      C1049   1.400       .  A
C1049      H1058   1.083       .  S
C1049      C1050   1.408       .  A
C1050      C1051   1.408       .  A
C1051      H1059   1.083       .  S
C1051      C1052   1.395       .  A
C1052      H1060   1.084       .  S
C1061      C1062   1.407       .  A
C1061      C1066   1.408       .  A
C1062      H1075   1.083       .  S
C1062      C1063   1.392       .  A
C1063      H1076   1.084       .  S
C1063      C1064   1.396       .  A
C1064      C1065   1.401       .  A
C1064      C1067   1.437       .  S
C1065      H1077   1.083       .  S
C1065      C1066   1.402       .  A
C1066      H1078   1.083       .  S
C1067      C1068   1.205       .  T
C1068      C1069   1.438       .  S
C1069      C1070   1.398       .  A
C1069      C1074   1.400       .  A
C1070      H1079   1.083       .  S
C1070      C1071   1.398       .  A
C1071      H1080   1.083       .  S
C1071      C1072   1.409       .  A
C1072      C1073   1.407       .  A
C1073      H1081   1.083       .  S
C1073      C1074   1.398       .  A
C1074      H1082   1.084       .  S
C1083      C1084   1.408       .  A
C1083      C1088   1.407       .  A
C1084      H1097   1.083       .  S
C1084      C1085   1.399       .  A
C1085      H1098   1.083       .  S
C1085      C1086   1.399       .  A
C1086      C1087   1.397       .  A
C1086      C1089   1.435       .  S
C1087      H1099   1.084       .  S
C1087      C1088   1.394       .  A
C1088      H1100   1.083       .  S
C1089      C1090   1.203       .  T
C1090      C1091   1.435       .  S
C1091      C1092   1.397       .  A
C1091      C1096   1.400       .  A
C1092      H1101   1.084       .  S
C1092      C1093   1.394       .  A
C1093      H1102   1.083       .  S
C1093      C1094   1.408       .  A
C1094      C1095   1.407       .  A
C1095      H1103   1.083       .  S
C1095      C1096   1.400       .  A
C1096      H1104   1.083       .  S
C1105      C1106   1.409       .  A
C1105      C1110   1.407       .  A
C1106      H1119   1.083   1_556  S
C1106      C1107   1.398       .  A
C1107      H1120   1.084       .  S
C1107      C1108   1.398       .  A
C1108      C1109   1.401       .  A
C1108      C1111   1.440       .  S
C1109      H1121   1.084       .  S
C1109      C1110   1.399       .  A
C1110      H1122   1.083       .  S
C1111      C1112   1.206       .  T
C1112      C1113   1.440       .  S
C1113      C1114   1.402       .  A
C1113      C1118   1.396       .  A
C1114      H1123   1.083       .  S
C1114      C1115   1.404       .  A
C1115      H1124   1.083       .  S
C1115      C1116   1.409       .  A
C1116      C1117   1.408       .  A
C1117      H1125   1.083       .  S
C1117      C1118   1.393       .  A
C1118      H1126   1.084       .  S
C1127      C1128   1.408       .  A
C1127      C1132   1.407       .  A
C1128      H1141   1.083       .  S
C1128      C1129   1.399       .  A
C1129      H1142   1.083       .  S
C1129      C1130   1.400       .  A
C1130      C1131   1.398       .  A
C1130      C1133   1.436       .  S
C1131      H1143   1.084       .  S
C1131      C1132   1.395       .  A
C1132      H1144   1.083       .  S
C1133      C1134   1.204       .  T
C1134      C1135   1.436       .  S
C1135      C1136   1.400       .  A
C1135      C1140   1.397       .  A
C1136      H1145   1.083       .  S
C1136      C1137   1.400       .  A
C1137      H1146   1.083       .  S
C1137      C1138   1.408       .  A
C1138      C1139   1.408       .  A
C1139      H1147   1.083       .  S
C1139      C1140   1.394       .  A
C1140      H1148   1.084       .  S
C1149      C1150   1.407       .  A
C1149      C1154   1.407       .  A
C1150      H1163   1.083       .  S
C1150      C1151   1.393       .  A
C1151      H1164   1.084       .  S
C1151      C1152   1.397       .  A
C1152      C1153   1.401       .  A
C1152      C1155   1.438       .  S
C1153      H1165   1.083       .  S
C1153      C1154   1.402       .  A
C1154      H1166   1.083       .  S
C1155      C1156   1.205       .  T
C1156      C1157   1.438       .  S
C1157      C1158   1.399       .  A
C1157      C1162   1.399       .  A
C1158      H1167   1.084       .  S
C1158      C1159   1.397       .  A
C1159      H1168   1.083       .  S
C1159      C1160   1.407       .  A
C1160      C1161   1.408       .  A
C1161      H1169   1.083       .  S
C1161      C1162   1.399       .  A
C1162      H1170   1.083       .  S
C1171      C1172   1.408       .  A
C1171      C1176   1.409       .  A
C1172      H1185   1.083       .  S
C1172      C1173   1.393       .  A
C1173      H1186   1.084       .  S
C1173      C1174   1.397       .  A
C1174      C1175   1.402       .  A
C1174      C1177   1.440       .  S
C1175      H1187   1.083       .  S
C1175      C1176   1.404       .  A
C1176      H1188   1.083       .  S
C1177      C1178   1.206       .  T
C1178      C1179   1.440       .  S
C1179      C1180   1.398       .  A
C1179      C1184   1.401       .  A
C1180      H1189   1.084       .  S
C1180      C1181   1.398       .  A
C1181      H1190   1.083   1_565  S
C1181      C1182   1.409       .  A
C1182      C1183   1.407       .  A
C1183      H1191   1.083       .  S
C1183      C1184   1.399       .  A
C1184      H1192   1.084       .  S
C1193      C1194   1.408       .  A
C1193      C1198   1.407       .  A
C1194      H1207   1.083       .  S
C1194      C1195   1.392       .  A
C1195      H1208   1.084       .  S
C1195      C1196   1.396       .  A
C1196      C1197   1.400       .  A
C1196      C1199   1.433       .  S
C1197      H1209   1.083       .  S
C1197      C1198   1.399       .  A
C1198      H1210   1.083       .  S
C1199      C1200   1.202       .  T
C1200      C1201   1.434       .  S
C1201      C1202   1.397       .  A
C1201      C1206   1.399       .  A
C1202      H1211   1.084       .  S
C1202      C1203   1.393       .  A
C1203      H1212   1.083       .  S
C1203      C1204   1.407       .  A
C1204      C1205   1.408       .  A
C1205      H1213   1.083       .  S
C1205      C1206   1.399       .  A
C1206      H1214   1.083       .  S
C1215      C1216   1.409       .  A
C1215      C1220   1.407       .  A
C1216      H1229   1.083       .  S
C1216      C1217   1.399       .  A
C1217      H1230   1.083       .  S
C1217      C1218   1.399       .  A
C1218      C1219   1.400       .  A
C1218      C1221   1.441       .  S
C1219      H1231   1.084       .  S
C1219      C1220   1.399       .  A
C1220      H1232   1.083       .  S
C1221      C1222   1.206       .  T
C1222      C1223   1.440       .  S
C1223      C1224   1.403       .  A
C1223      C1228   1.397       .  A
C1224      H1233   1.083       .  S
C1224      C1225   1.403       .  A
C1225      H1234   1.083       .  S
C1225      C1226   1.406       .  A
C1226      C1227   1.407       .  A
C1227      H1235   1.083       .  S
C1227      C1228   1.394       .  A
C1228      H1236   1.084       .  S
C1237      C1238   1.408       .  A
C1237      C1242   1.408       .  A
C1238      H1251   1.083       .  S
C1238      C1239   1.394       .  A
C1239      H1252   1.084       .  S
C1239      C1240   1.397       .  A
C1240      C1241   1.399       .  A
C1240      C1243   1.435       .  S
C1241      H1253   1.083       .  S
C1241      C1242   1.399       .  A
C1242      H1254   1.083       .  S
C1243      C1244   1.203       .  T
C1244      C1245   1.435       .  S
C1245      C1246   1.399       .  A
C1245      C1250   1.397       .  A
C1246      H1255   1.083       .  S
C1246      C1247   1.399       .  A
C1247      H1256   1.083       .  S
C1247      C1248   1.408       .  A
C1248      C1249   1.407       .  A
C1249      H1257   1.083       .  S
C1249      C1250   1.394       .  A
C1250      H1258   1.084       .  S
C1259      C1260   1.407       .  A
C1259      C1264   1.408       .  A
C1260      H1273   1.083       .  S
C1260      C1261   1.394       .  A
C1261      H1274   1.084       .  S
C1261      C1262   1.397       .  A
C1262      C1263   1.399       .  A
C1262      C1265   1.435       .  S
C1263      H1275   1.083       .  S
C1263      C1264   1.399       .  A
C1264      H1276   1.083       .  S
C1265      C1266   1.203       .  T
C1266      C1267   1.435       .  S
C1267      C1268   1.400       .  A
C1267      C1272   1.397       .  A
C1268      H1277   1.083       .  S
C1268      C1269   1.399       .  A
C1269      H1278   1.083       .  S
C1269      C1270   1.408       .  A
C1270      C1271   1.408       .  A
C1271      H1279   1.083       .  S
C1271      C1272   1.395       .  A
C1272      H1280   1.084       .  S
C1281      C1282   1.408       .  A
C1281      C1286   1.408       .  A
C1282      H1295   1.083       .  S
C1282      C1283   1.400       .  A
C1283      H1296   1.083       .  S
C1283      C1284   1.400       .  A
C1284      C1285   1.398       .  A
C1284      C1287   1.440       .  S
C1285      H1297   1.084       .  S
C1285      C1286   1.396       .  A
C1286      H1298   1.083       .  S
C1287      C1288   1.206       .  T
C1288      C1289   1.440       .  S
C1289      C1290   1.397       .  A
C1289      C1294   1.401       .  A
C1290      H1299   1.084       .  S
C1290      C1291   1.396       .  A
C1291      H1300   1.083       .  S
C1291      C1292   1.410       .  A
C1292      C1293   1.407       .  A
C1293      H1301   1.083       .  S
C1293      C1294   1.401       .  A
C1294      H1302   1.083       .  S
C1303      C1304   1.408       .  A
C1303      C1308   1.408       .  A
C1304      H1317   1.083       .  S
C1304      C1305   1.393       .  A
C1305      H1318   1.084       .  S
C1305      C1306   1.397       .  A
C1306      C1307   1.400       .  A
C1306      C1309   1.435       .  S
C1307      H1319   1.083       .  S
C1307      C1308   1.400       .  A
C1308      H1320   1.083       .  S
C1309      C1310   1.203       .  T
C1310      C1311   1.435       .  S
C1311      C1312   1.398       .  A
C1311      C1316   1.399       .  A
C1312      H1321   1.084       .  S
C1312      C1313   1.394       .  A
C1313      H1322   1.083       .  S
C1313      C1314   1.406       .  A
C1314      C1315   1.409       .  A
C1315      H1323   1.083       .  S
C1315      C1316   1.399       .  A
C1316      H1324   1.083       .  S
C1325      C1326   1.410       .  A
C1325      C1330   1.407       .  A
C1326      H1339   1.083       .  S
C1326      C1327   1.398       .  A
C1327      H1340   1.084       .  S
C1327      C1328   1.398       .  A
C1328      C1329   1.401       .  A
C1328      C1331   1.441       .  S
C1329      H1341   1.084       .  S
C1329      C1330   1.400       .  A
C1330      H1342   1.083   1_655  S
C1331      C1332   1.207       .  T
C1332      C1333   1.441       .  S
C1333      C1334   1.396       .  A
C1333      C1338   1.403       .  A
C1334      H1343   1.084       .  S
C1334      C1335   1.392       .  A
C1335      H1344   1.083       .  S
C1335      C1336   1.409       .  A
C1336      C1337   1.408       .  A
C1337      H1345   1.083       .  S
C1337      C1338   1.405       .  A
C1338      H1346   1.083       .  S
C1347      C1348   1.408       .  A
C1347      C1352   1.407       .  A
C1348      H1361   1.083       .  S
C1348      C1349   1.399       .  A
C1349      H1362   1.083       .  S
C1349      C1350   1.399       .  A
C1350      C1351   1.397       .  A
C1350      C1353   1.434       .  S
C1351      H1363   1.084       .  S
C1351      C1352   1.394       .  A
C1352      H1364   1.083       .  S
C1353      C1354   1.202       .  T
C1354      C1355   1.434       .  S
C1355      C1356   1.397       .  A
C1355      C1360   1.399       .  A
C1356      H1365   1.084       .  S
C1356      C1357   1.394       .  A
C1357      H1366   1.083       .  S
C1357      C1358   1.407       .  A
C1358      C1359   1.408       .  A
C1359      H1367   1.083       .  S
C1359      C1360   1.399       .  A
C1360      H1368   1.083       .  S
C1369      C1370   1.408       .  A
C1369      C1374   1.408       .  A
C1370      H1383   1.083       .  S
C1370      C1371   1.392       .  A
C1371      H1384   1.084       .  S
C1371      C1372   1.396       .  A
C1372      C1373   1.402       .  A
C1372      C1375   1.438       .  S
C1373      H1385   1.083       .  S
C1373      C1374   1.403       .  A
C1374      H1386   1.083       .  S
C1375      C1376   1.205       .  T
C1376      C1377   1.439       .  S
C1377      C1378   1.399       .  A
C1377      C1382   1.400       .  A
C1378      H1387   1.083       .  S
C1378      C1379   1.399       .  A
C1379      H1388   1.083       .  S
C1379      C1380   1.409       .  A
C1380      C1381   1.407       .  A
C1381      H1389   1.083       .  S
C1381      C1382   1.398       .  A
C1382      H1390   1.084       .  S
C1391      C1392   1.408       .  A
C1391      C1396   1.408       .  A
C1392      H1405   1.083       .  S
C1392      C1393   1.394       .  A
C1393      H1406   1.084       .  S
C1393      C1394   1.397       .  A
C1394      C1395   1.400       .  A
C1394      C1397   1.437       .  S
C1395      H1407   1.083       .  S
C1395      C1396   1.401       .  A
C1396      H1408   1.083       .  S
C1397      C1398   1.205       .  T
C1398      C1399   1.437       .  S
C1399      C1400   1.398       .  A
C1399      C1404   1.400       .  A
C1400      H1409   1.084       .  S
C1400      C1401   1.395       .  A
C1401      H1410   1.083       .  S
C1401      C1402   1.408       .  A
C1402      C1403   1.407       .  A
C1403      H1411   1.083       .  S
C1403      C1404   1.400       .  A
C1404      H1412   1.083       .  S
C1413      C1414   1.407       .  A
C1413      C1418   1.409       .  A
C1414      H1427   1.083       .  S
C1414      C1415   1.399       .  A
C1415      H1428   1.084       .  S
C1415      C1416   1.400       .  A
C1416      C1417   1.399       .  A
C1416      C1419   1.442       .  S
C1417      H1429   1.083       .  S
C1417      C1418   1.400       .  A
C1418      H1430   1.083   1_655  S
C1419      C1420   1.207       .  T
C1420      C1421   1.441       .  S
C1421      C1422   1.397       .  A
C1421      C1426   1.403       .  A
C1422      H1431   1.084       .  S
C1422      C1423   1.394       .  A
C1423      H1432   1.083       .  S
C1423      C1424   1.407       .  A
C1424      C1425   1.408       .  A
C1425      H1433   1.083       .  S
C1425      C1426   1.404       .  A
C1426      H1434   1.083       .  S
C1435      C1436   1.408       .  A
C1435      C1440   1.407       .  A
C1436      H1449   1.083       .  S
C1436      C1437   1.398       .  A
C1437      H1450   1.083       .  S
C1437      C1438   1.399       .  A
C1438      C1439   1.397       .  A
C1438      C1441   1.432       .  S
C1439      H1451   1.084       .  S
C1439      C1440   1.393       .  A
C1440      H1452   1.083       .  S
C1441      C1442   1.201       .  T
C1442      C1443   1.432       .  S
C1443      C1444   1.396       .  A
C1443      C1448   1.400       .  A
C1444      H1453   1.084       .  S
C1444      C1445   1.393       .  A
C1445      H1454   1.083       .  S
C1445      C1446   1.407       .  A
C1446      C1447   1.406       .  A
C1447      H1455   1.083       .  S
C1447      C1448   1.398       .  A
C1448      H1456   1.083       .  S
C1457      C1458   1.406       .  A
C1457      C1462   1.408       .  A
C1458      H1471   1.083       .  S
C1458      C1459   1.393       .  A
C1459      H1472   1.084       .  S
C1459      C1460   1.397       .  A
C1460      C1461   1.399       .  A
C1460      C1463   1.433       .  S
C1461      H1473   1.083       .  S
C1461      C1462   1.399       .  A
C1462      H1474   1.083       .  S
C1463      C1464   1.202       .  T
C1464      C1465   1.433       .  S
C1465      C1466   1.397       .  A
C1465      C1470   1.400       .  A
C1466      H1475   1.084       .  S
C1466      C1467   1.394       .  A
C1467      H1476   1.083       .  S
C1467      C1468   1.407       .  A
C1468      C1469   1.406       .  A
C1469      H1477   1.083       .  S
C1469      C1470   1.398       .  A
C1470      H1478   1.084       .  S
C1479      C1480   1.408       .  A
C1479      C1484   1.408       .  A
C1480      H1493   1.083       .  S
C1480      C1481   1.400       .  A
C1481      H1494   1.083       .  S
C1481      C1482   1.400       .  A
C1482      C1483   1.397       .  A
C1482      C1485   1.437       .  S
C1483      H1495   1.084       .  S
C1483      C1484   1.394       .  A
C1484      H1496   1.083       .  S
C1485      C1486   1.204       .  T
C1486      C1487   1.437       .  S
C1487      C1488   1.398       .  A
C1487      C1492   1.400       .  A
C1488      H1497   1.084       .  S
C1488      C1489   1.396       .  A
C1489      H1498   1.083       .  S
C1489      C1490   1.407       .  A
C1490      C1491   1.407       .  A
C1491      H1499   1.083       .  S
C1491      C1492   1.399       .  A
C1492      H1500   1.083       .  S
C1501      C1502   1.408       .  A
C1501      C1506   1.407       .  A
C1502      H1515   1.083       .  S
C1502      C1503   1.396       .  A
C1503      H1516   1.084       .  S
C1503      C1504   1.398       .  A
C1504      C1505   1.399       .  A
C1504      C1507   1.435       .  S
C1505      H1517   1.084       .  S
C1505      C1506   1.397       .  A
C1506      H1518   1.083       .  S
C1507      C1508   1.203       .  T
C1508      C1509   1.435       .  S
C1509      C1510   1.398       .  A
C1509      C1514   1.399       .  A
C1510      H1519   1.084       .  S
C1510      C1511   1.395       .  A
C1511      H1520   1.083       .  S
C1511      C1512   1.407       .  A
C1512      C1513   1.408       .  A
C1513      H1521   1.083       .  S
C1513      C1514   1.398       .  A
C1514      H1522   1.083       .  S
C1523      C1524   1.407       .  A
C1523      C1528   1.410       .  A
C1524      H1537   1.083       .  S
C1524      C1525   1.398       .  A
C1525      H1538   1.084       .  S
C1525      C1526   1.400       .  A
C1526      C1527   1.399       .  A
C1526      C1529   1.441       .  S
C1527      H1539   1.083       .  S
C1527      C1528   1.400       .  A
C1528      H1540   1.083       .  S
C1529      C1530   1.207       .  T
C1530      C1531   1.441       .  S
C1531      C1532   1.403       .  A
C1531      C1536   1.396       .  A
C1532      H1541   1.083       .  S
C1532      C1533   1.405       .  A
C1533      H1542   1.083       .  S
C1533      C1534   1.409       .  A
C1534      C1535   1.409       .  A
C1535      H1543   1.083       .  S
C1535      C1536   1.392       .  A
C1536      H1544   1.084       .  S
C1545      C1546   1.408       .  A
C1545      C1550   1.406       .  A
C1546      H1559   1.083       .  S
C1546      C1547   1.397       .  A
C1547      H1560   1.084       .  S
C1547      C1548   1.398       .  A
C1548      C1549   1.400       .  A
C1548      C1551   1.436       .  S
C1549      H1561   1.084       .  S
C1549      C1550   1.397       .  A
C1550      H1562   1.083       .  S
C1551      C1552   1.204       .  T
C1552      C1553   1.436       .  S
C1553      C1554   1.399       .  A
C1553      C1558   1.398       .  A
C1554      H1563   1.083       .  S
C1554      C1555   1.399       .  A
C1555      H1564   1.083       .  S
C1555      C1556   1.408       .  A
C1556      C1557   1.407       .  A
C1557      H1565   1.083       .  S
C1557      C1558   1.395       .  A
C1558      H1566   1.084       .  S
C1567      C1568   1.407       .  A
C1567      C1572   1.410       .  A
C1568      H1581   1.083       .  S
C1568      C1569   1.398       .  A
C1569      H1582   1.084       .  S
C1569      C1570   1.400       .  A
C1570      C1571   1.399       .  A
C1570      C1573   1.441       .  S
C1571      H1583   1.083       .  S
C1571      C1572   1.400       .  A
C1572      H1584   1.083       .  S
C1573      C1574   1.207       .  T
C1574      C1575   1.441       .  S
C1575      C1576   1.403       .  A
C1575      C1580   1.396       .  A
C1576      H1585   1.083       .  S
C1576      C1577   1.405       .  A
C1577      H1586   1.083       .  S
C1577      C1578   1.408       .  A
C1578      C1579   1.409       .  A
C1579      H1587   1.083       .  S
C1579      C1580   1.393       .  A
C1580      H1588   1.084       .  S
C1589      C1590   1.407       .  A
C1589      C1594   1.408       .  A
C1590      H1603   1.083       .  S
C1590      C1591   1.398       .  A
C1591      H1604   1.084       .  S
C1591      C1592   1.400       .  A
C1592      C1593   1.397       .  A
C1592      C1595   1.434       .  S
C1593      H1605   1.084       .  S
C1593      C1594   1.395       .  A
C1594      H1606   1.083       .  S
C1595      C1596   1.203       .  T
C1596      C1597   1.434       .  S
C1597      C1598   1.398       .  A
C1597      C1602   1.398       .  A
C1598      H1607   1.084       .  S
C1598      C1599   1.397       .  A
C1599      H1608   1.083       .  S
C1599      C1600   1.408       .  A
C1600      C1601   1.408       .  A
C1601      H1609   1.083       .  S
C1601      C1602   1.395       .  A
C1602      H1610   1.084       .  S
C1611      C1612   1.409       .  A
C1611      C1616   1.406       .  A
C1612      H1625   1.083       .  S
C1612      C1613   1.399       .  A
C1613      H1626   1.083       .  S
C1613      C1614   1.399       .  A
C1614      C1615   1.400       .  A
C1614      C1617   1.440       .  S
C1615      H1627   1.084       .  S
C1615      C1616   1.398       .  A
C1616      H1628   1.083       .  S
C1617      C1618   1.206       .  T
C1618      C1619   1.440       .  S
C1619      C1620   1.396       .  A
C1619      C1624   1.403       .  A
C1620      H1629   1.084       .  S
C1620      C1621   1.393       .  A
C1621      H1630   1.083       .  S
C1621      C1622   1.408       .  A
C1622      C1623   1.407       .  A
C1623      H1631   1.083       .  S
C1623      C1624   1.404       .  A
C1624      H1632   1.083       .  S
