geometry optimzed in LAMMPS
_audit_creation_date              2020-11-30 
_audit_creation_method            'lammps2cif' 
_symmetry_space_group_name_H-M    'P1' 
_symmetry_Int_Tables_number       1 
_symmetry_cell_setting            triclinic 
loop_ 
_symmetry_equiv_pos_as_xyz 
  x,y,z 
_cell_length_a                    53.21333526 
_cell_length_b                    53.258840496550604 
_cell_length_c                    53.39166978385638 
_cell_angle_alpha                 89.99057248460747 
_cell_angle_beta                  89.45312997451873 
_cell_angle_gamma                 89.4079496986889 
loop_ 
_atom_site_label 
_atom_site_type_symbol 
_atom_site_fract_x 
_atom_site_fract_y 
_atom_site_fract_z 
_atom_site_charge 
C1          C  0.20066662  0.18490544  0.18510080    -0.01500
C2          C  0.08748743  0.07440860  0.07586044    -0.01500
C3          C  0.93966777  0.58694280  0.45083375    -0.01500
C4          C  0.82679725  0.70115677  0.34406621    -0.01500
C5          C  0.58659690  0.45443915  0.93512305    -0.01500
C6          C  0.69936932  0.33000283  0.83547242    -0.01500
C7          C  0.44006221  0.95271541  0.57965765    -0.01500
C8          C  0.33923945  0.82672894  0.68700869    -0.01500
In9        In  0.53115045  0.40812881  0.16080399     1.36900
C10         C  0.53003973  0.35937421  0.17340389     0.78600
O11         O  0.49314031  0.40526010  0.17920709    -0.59800
O12         O  0.49569649  0.42240243  0.14345731    -0.50800
C13         C  0.55003684  0.44740102  0.18609033     0.71300
O14         O  0.53102131  0.44852156  0.17236998    -0.45600
C15         C  0.55090174  0.41071917  0.11506376     0.76000
O16         O  0.52988566  0.37674062  0.18950448    -0.57500
O17         O  0.52771195  0.41115684  0.11987116    -0.47600
O18         O  0.53363757  0.36692623  0.15133601    -0.53900
C19         C  0.48168499  0.41533180  0.16117626     0.86100
O20         O  0.56001448  0.42576311  0.18696145    -0.55800
O21         O  0.56472905  0.40838281  0.13412081    -0.59100
In22       In  0.24390376  0.41601085  0.14277198     1.36900
C23         C  0.24342915  0.43140862  0.09460077     0.78600
O24         O  0.28022412  0.43727035  0.14399215    -0.59800
O25         O  0.28128876  0.39772512  0.14822309    -0.50800
C26         C  0.22564820  0.43915860  0.18437181     0.71300
O27         O  0.24558736  0.42631117  0.18358776    -0.45600
C28         C  0.22729962  0.36888197  0.14516292     0.76000
O29         O  0.24381335  0.44648544  0.11278753    -0.57500
O30         O  0.25002152  0.37502842  0.14648553    -0.47600
O31         O  0.24007425  0.40900877  0.10114667    -0.53900
C32         C  0.29352830  0.41778674  0.14702024     0.86100
O33         O  0.21417415  0.43974537  0.16371635    -0.55800
O34         O  0.21219441  0.38731191  0.14296547    -0.59100
In35       In  0.16233056  0.53268946  0.39524513     1.36900
C36         C  0.17422854  0.52607343  0.34670561     0.78600
O37         O  0.18442715  0.49696953  0.39451774    -0.59800
O38         O  0.14717049  0.49663602  0.40933209    -0.50800
C39         C  0.18741088  0.54905021  0.43539658     0.71300
O40         O  0.17055242  0.53268186  0.43617547    -0.45600
C41         C  0.11748190  0.55556022  0.39625584     0.76000
O42         O  0.18911311  0.53673755  0.36163115    -0.57500
O43         O  0.12079620  0.53227122  0.39854537    -0.47600
O44         O  0.15292466  0.52191362  0.35610789    -0.53900
C45         C  0.16658222  0.48418108  0.40327726     0.86100
O46         O  0.19117254  0.55809324  0.41372992    -0.55800
O47         O  0.13751403  0.56790297  0.39331315    -0.59100
In48       In  0.14463372  0.24944837  0.40771418     1.36900
C49         C  0.09627432  0.25095529  0.42308648     0.78600
O50         O  0.14293279  0.28801100  0.42325570    -0.59800
O51         O  0.16061569  0.28271385  0.38771337    -0.50800
C52         C  0.18405346  0.23455390  0.43542876     0.71300
O53         O  0.16621495  0.21980200  0.43060816    -0.45600
C54         C  0.14869653  0.22851987  0.36260031     0.76000
O55         O  0.11414649  0.24706629  0.43797642    -0.57500
O56         O  0.14461504  0.25150100  0.36635745    -0.47600
O57         O  0.10304103  0.25134699  0.40049076    -0.53900
C58         C  0.15436854  0.29777906  0.40493842     0.86100
O59         O  0.18148382  0.25594759  0.42591627    -0.55800
O60         O  0.15014502  0.21547480  0.38237638    -0.59100
In61       In  0.40062060  0.18015918  0.51897543     1.36900
C62         C  0.35273731  0.19689678  0.51384843     0.78600
O63         O  0.40961630  0.19928728  0.48271972    -0.59800
O64         O  0.41323016  0.15964866  0.48448382    -0.50800
C65         C  0.43882750  0.20372840  0.54154341     0.71300
O66         O  0.41634412  0.20629572  0.54915291    -0.45600
C67         C  0.40105268  0.13373709  0.53730177     0.76000
O68         O  0.37169376  0.20937115  0.50750620    -0.57500
O69         O  0.39926380  0.13870901  0.51429665    -0.47600
O70         O  0.35823742  0.17694170  0.52528277    -0.53900
C71         C  0.41517308  0.17921159  0.47136125     0.86100
O72         O  0.44125493  0.18879363  0.52348142    -0.55800
O73         O  0.40166180  0.15285895  0.55138973    -0.59100
In74       In  0.42645953  0.15473620  0.23718468     1.36900
C75         C  0.43973176  0.10616874  0.23952518     0.78600
O76         O  0.40999879  0.16560429  0.27419362    -0.59800
O77         O  0.44904513  0.15770863  0.27242943    -0.50800
C78         C  0.44833692  0.19497394  0.21638745     0.71300
O79         O  0.43060475  0.19604310  0.23207191    -0.45600
C80         C  0.38088625  0.15308781  0.21752351     0.76000
O81         O  0.45567531  0.12318022  0.23563473    -0.57500
O82         O  0.38522787  0.15869881  0.23998560    -0.47600
O83         O  0.41738418  0.11397240  0.24030100    -0.53900
C84         C  0.43036111  0.16374686  0.28585929     0.86100
O85         O  0.45438602  0.17283014  0.20999625    -0.55800
O86         O  0.40039152  0.14894116  0.20426200    -0.59100
In87       In  0.75332170  0.10647396  0.88873419     1.36900
C88         C  0.75886512  0.09771153  0.93786548     0.78600
O89         O  0.78796985  0.08214472  0.88907158    -0.59800
O90         O  0.78998820  0.11844079  0.87279827    -0.50800
C91         C  0.73410595  0.07881012  0.85154340     0.71300
O92         O  0.72754952  0.07583444  0.87418047    -0.45600
C93         C  0.73221777  0.15223703  0.88521048     0.76000
O94         O  0.74497104  0.08428147  0.92431666    -0.57500
O95         O  0.75513139  0.14745917  0.88149186    -0.47600
O96         O  0.76767888  0.11651612  0.92668534    -0.53900
C97         C  0.80151570  0.09859349  0.87884813     0.86100
O98         O  0.74960600  0.09620995  0.84827002    -0.55800
O99         O  0.71935931  0.13321011  0.89102342    -0.59100
In100      In  0.03191577  0.12168215  0.85082306     1.36900
C101        C  0.02422794  0.17026068  0.83895590     0.78600
O102        O  0.99368736  0.11328568  0.83700889    -0.59800
O103        O  0.00242607  0.10252672  0.87423017    -0.50800
C104        C  0.05177190  0.09144783  0.81559290     0.71300
O105        O  0.06518142  0.10666033  0.82768433    -0.45600
C106        C  0.05447700  0.11758344  0.89545099     0.76000
O107        O  0.04299131  0.15801342  0.83051399    -0.57500
O108        O  0.05266637  0.09933319  0.88056184    -0.47600
O109        O  0.01015471  0.15759276  0.85297929    -0.53900
C110        C  0.98619860  0.10348279  0.85718249     0.86100
O111        O  0.02871410  0.09320608  0.82056140    -0.55800
O112        O  0.04624782  0.13800038  0.88674871    -0.59100
In113      In  0.89547844  0.36058324  0.49075025     1.36900
C114        C  0.84563976  0.35409585  0.49632513     0.78600
O115        O  0.90655439  0.34020029  0.52597400    -0.59800
O116        O  0.90986361  0.37973744  0.52470515    -0.50800
C117        C  0.93033079  0.33122331  0.46852013     0.71300
O118        O  0.91374452  0.32265122  0.48310546    -0.45600
C119        C  0.90066515  0.40584075  0.47142229     0.76000
O120        O  0.85821052  0.34268834  0.47953737    -0.57500
O121        O  0.91144306  0.39829830  0.49097322    -0.47600
O122        O  0.85846615  0.36892287  0.50907784    -0.53900
C123        C  0.91254073  0.35999070  0.53731846     0.86100
O124        O  0.92721971  0.35405765  0.46326050    -0.55800
O125        O  0.88757805  0.38946848  0.46043527    -0.59100
In126      In  0.92465171  0.37659688  0.77067330     1.36900
C127        C  0.93283758  0.42627080  0.77291416     0.78600
O128        O  0.94594448  0.38201347  0.73449861    -0.59800
O129        O  0.91229399  0.36093476  0.73428771    -0.50800
C130        C  0.95249969  0.33785435  0.78792110     0.71300
O131        O  0.95103325  0.35857146  0.79948730    -0.45600
C132        C  0.87868807  0.37100829  0.79007912     0.76000
O133        O  0.94941325  0.41020588  0.77885521    -0.57500
O134        O  0.88328180  0.37216596  0.76696077    -0.47600
O135        O  0.91207597  0.41681286  0.76732918    -0.53900
C136        C  0.93051812  0.36952402  0.72184600     0.86100
O137        O  0.93976699  0.33735821  0.76824266    -0.55800
O138        O  0.89792016  0.37249333  0.80369875    -0.59100
In139      In  0.27471218  0.60026703  0.64737419     1.36900
C140        C  0.27202224  0.58872887  0.59846702     0.78600
O141        O  0.23639911  0.58323013  0.64660395    -0.59800
O142        O  0.24066801  0.61924768  0.66311816    -0.50800
C143        C  0.29367578  0.57091933  0.68377700     0.71300
O144        O  0.27109607  0.57772503  0.68255805    -0.45600
C145        C  0.29471157  0.64566503  0.65292628     0.76000
O146        O  0.27740843  0.57266954  0.61497836    -0.57500
O147        O  0.27210682  0.64064987  0.65764589    -0.47600
O148        O  0.27034068  0.61077108  0.60675670    -0.53900
C149        C  0.22599175  0.60178681  0.65732615     0.86100
O150        O  0.30710845  0.57890988  0.66590537    -0.55800
O151        O  0.30780457  0.62698337  0.64578405    -0.59100
In152      In  0.99119303  0.63486651  0.67838763     1.36900
C153        C  0.99134416  0.68381125  0.69043033     0.78600
O154        O  0.02901268  0.63334120  0.69675377    -0.59800
O155        O  0.02635775  0.62286487  0.65861728    -0.50800
C156        C  0.97387788  0.59579620  0.70481416     0.71300
O157        O  0.96312919  0.61709544  0.70609680    -0.45600
C158        C  0.97288233  0.62941693  0.63273031     0.76000
O159        O  0.99575509  0.66661015  0.70601518    -0.57500
O160        O  0.99551044  0.63416505  0.63735034    -0.47600
O161        O  0.98375864  0.67589138  0.66966845    -0.53900
C162        C  0.04025982  0.62552591  0.67733592     0.86100
O163        O  0.99232436  0.59508755  0.69000593    -0.55800
O164        O  0.95870399  0.62832439  0.65192239    -0.59100
In165      In  0.11272648  0.87614091  0.74239785     1.36900
C166        C  0.10571561  0.92563175  0.74743708     0.78600
O167        O  0.09481491  0.86991902  0.77975243    -0.59800
O168        O  0.13274150  0.85843892  0.77533562    -0.50800
C169        C  0.07780126  0.84667671  0.72160153     0.71300
O170        O  0.09860769  0.85088788  0.71105372    -0.45600
C171        C  0.15681893  0.86964400  0.71941528     0.76000
O172        O  0.09598079  0.91347345  0.72967831    -0.57500
O173        O  0.14636907  0.85280042  0.73238300    -0.47600
O174        O  0.11947610  0.91254434  0.76143846    -0.53900
C175        C  0.11402774  0.86067861  0.78988086     0.86100
O176        O  0.07418075  0.85937550  0.74114363    -0.55800
O177        O  0.14438341  0.88989241  0.71768150    -0.59100
In178      In  0.12863822  0.84282330  0.02615437     1.36900
C179        C  0.17808677  0.83366986  0.02381237     0.78600
O180        O  0.13125249  0.82402787  0.98869480    -0.59800
O181        O  0.11824332  0.86179155  0.99032478    -0.50800
C182        C  0.09324665  0.81260918  0.04558587     0.71300
O183        O  0.10979053  0.82261332  0.05905938    -0.45600
C184        C  0.11867304  0.88793000  0.04576605     0.76000
O185        O  0.16274105  0.81748805  0.03180793    -0.57500
O186        O  0.10684131  0.87862702  0.02772060    -0.47600
O187        O  0.16832268  0.85485163  0.01970036    -0.53900
C188        C  0.12382931  0.84310545  0.97678085     0.86100
O189        O  0.09588669  0.81712109  0.02263902    -0.55800
O190        O  0.13513011  0.87341298  0.05495714    -0.59100
In191      In  0.35893657  0.49623132  0.89736771     1.36900
C192        C  0.34969181  0.50109876  0.84850185     0.78600
O193        O  0.33562151  0.53153523  0.90001211    -0.59800
O194        O  0.37040347  0.53028359  0.91891734    -0.50800
C195        C  0.33182534  0.47392465  0.93357808     0.71300
O196        O  0.32336300  0.47770755  0.91185447    -0.45600
C197        C  0.40551694  0.47741509  0.89440854     0.76000
O198        O  0.34022572  0.48340477  0.86120690    -0.57500
O199        O  0.40040126  0.50031639  0.89762788    -0.47600
O200        O  0.36423453  0.51485917  0.86066795    -0.53900
C201        C  0.35128854  0.54311549  0.91311669     0.86100
O202        O  0.35450619  0.47993998  0.93599929    -0.55800
O203        O  0.38647826  0.46346929  0.89290133    -0.59100
In204      In  0.38118806  0.77456072  0.91106616     1.36900
C205        C  0.43021656  0.77247199  0.92272533     0.78600
O206        O  0.37731143  0.74044111  0.93565566    -0.59800
O207        O  0.36322370  0.73922322  0.89866438    -0.50800
C208        C  0.34146851  0.79482761  0.93519748     0.71300
O209        O  0.36373795  0.79798446  0.94262401    -0.45600
C210        C  0.38259647  0.79347811  0.86481100     0.76000
O211        O  0.41534946  0.78843536  0.93255626    -0.57500
O212        O  0.38302727  0.77037883  0.86966719    -0.47600
O213        O  0.41995955  0.75845969  0.90693997    -0.53900
C214        C  0.36631238  0.72783694  0.91909711     0.86100
O215        O  0.34010638  0.78290686  0.91492756    -0.55800
O216        O  0.38200449  0.80743984  0.88395882    -0.59100
In217      In  0.60025787  0.65579687  0.28289932     1.36900
C218        C  0.59519293  0.60596937  0.27786839     0.78600
O219        O  0.58523093  0.65260270  0.24441874    -0.59800
O220        O  0.61558192  0.67742287  0.25017616    -0.50800
C221        C  0.56581638  0.68782248  0.30243403     0.71300
O222        O  0.58291860  0.67793734  0.31545818    -0.45600
C223        C  0.64485040  0.66491052  0.30314218     0.76000
O224        O  0.57919834  0.61932947  0.28961039    -0.57500
O225        O  0.63675901  0.67586506  0.28383408    -0.47600
O226        O  0.61456686  0.61772100  0.27133849    -0.53900
C227        C  0.60035668  0.66801750  0.23491734     0.86100
O228        O  0.56514481  0.67958417  0.28046388    -0.55800
O229        O  0.62959547  0.64952380  0.31282171    -0.59100
In230      In  0.63363500  0.67873158  0.00121936     1.36900
C231        C  0.68315099  0.68867737  0.00077639     0.78600
O232        O  0.63326990  0.69822298  0.03854605    -0.59800
O233        O  0.62015896  0.66080706  0.03638131    -0.50800
C234        C  0.59586573  0.70696644  0.98280068     0.71300
O235        O  0.61684978  0.70492883  0.97159977    -0.45600
C236        C  0.62825982  0.63310212  0.98151748     0.76000
O237        O  0.67431221  0.66700658  0.99879236    -0.57500
O238        O  0.62950989  0.63734159  0.00466301    -0.47600
O239        O  0.66658876  0.70577884  0.00106875    -0.53900
C240        C  0.62400863  0.67968053  0.04993895     0.86100
O241        O  0.59450800  0.69435216  0.00262895    -0.55800
O242        O  0.62957381  0.65258384  0.96796635    -0.59100
In243      In  0.64825863  0.28764258  0.60823956     1.36900
C244        C  0.59869096  0.28424489  0.59924643     0.78600
O245        O  0.64968442  0.24799460  0.59432319    -0.59800
O246        O  0.66056399  0.25490490  0.63173379    -0.50800
C247        C  0.68062958  0.30553578  0.57386937     0.71300
O248        O  0.66508579  0.31977096  0.58519241    -0.45600
C249        C  0.66029353  0.31010824  0.65094996     0.76000
O250        O  0.61344760  0.29557001  0.58446611    -0.57500
O251        O  0.67550152  0.29695264  0.63826520    -0.47600
O252        O  0.60899614  0.27696372  0.61909306    -0.53900
C253        C  0.65702185  0.23888700  0.61482871     0.86100
O254        O  0.67810588  0.28264493  0.57902931    -0.55800
O255        O  0.63920059  0.31356010  0.64075321    -0.59100
In256      In  0.65765698  0.00319277  0.64659393     1.36900
C257        C  0.67196819  0.00007068  0.69433044     0.78600
O258        O  0.67989190  0.03887355  0.64594557    -0.59800
O259        O  0.64015570  0.04108347  0.64349895    -0.50800
C260        C  0.68146529  0.98683950  0.60518599     0.71300
O261        O  0.68222338  0.97490372  0.62563092    -0.45600
C262        C  0.61236822  0.98370217  0.64129435     0.76000
O263        O  0.68679495  0.99540389  0.67630531    -0.57500
O264        O  0.61699900  0.00669068  0.63900573    -0.47600
O265        O  0.64957527  0.00374031  0.68785153    -0.53900
C266        C  0.66061694  0.05273296  0.64408368     0.86100
O267        O  0.66841252  0.00664695  0.60614362    -0.55800
O268        O  0.63126247  0.97008681  0.64634045    -0.59100
In269      In  0.87627769  0.74301387  0.11455578     1.36900
C270        C  0.92493089  0.74908633  0.10234980     0.78600
O271        O  0.85626548  0.77814159  0.10176848    -0.59800
O272        O  0.86986737  0.77654323  0.13887149    -0.50800
C273        C  0.84740720  0.72136224  0.08006323     0.71300
O274        O  0.85234158  0.71104368  0.10073972    -0.45600
C275        C  0.86815039  0.72273780  0.15935863     0.76000
O276        O  0.91401771  0.72842230  0.09873323    -0.57500
O277        O  0.85099843  0.73233231  0.14623581    -0.47600
O278        O  0.91096467  0.76566524  0.11189039    -0.53900
C279        C  0.85907118  0.78938305  0.12230968     0.86100
O280        O  0.85914881  0.74144609  0.07624856    -0.55800
O281        O  0.88947631  0.72175327  0.14873522    -0.59100
In282      In  0.86117908  0.02404192  0.14161842     1.36900
C283        C  0.84964519  0.02718731  0.19085230     0.78600
O284        O  0.83940315  0.98915422  0.14936642    -0.59800
O285        O  0.87248308  0.98606452  0.12699099    -0.50800
C286        C  0.83381664  0.04156389  0.10287862     0.71300
O287        O  0.83784977  0.05465857  0.12220872    -0.45600
C288        C  0.90779881  0.04136568  0.13345815     0.76000
O289        O  0.83406647  0.03252932  0.17389284    -0.57500
O290        O  0.90326471  0.01905321  0.13975734    -0.47600
O291        O  0.87160238  0.02337019  0.18262480    -0.53900
C292        C  0.85419120  0.97500127  0.13723703     0.86100
O293        O  0.84347364  0.01992507  0.10381505    -0.55800
O294        O  0.88846967  0.05522926  0.13192223    -0.59100
In295      In  0.49072144  0.90400112  0.35128591     1.36900
C296        C  0.48835912  0.85445968  0.34237195     0.78600
O297        O  0.53063406  0.89873563  0.33832988    -0.59800
O298        O  0.52266394  0.92719825  0.36513263    -0.50800
C299        C  0.47416594  0.93889212  0.31883363     0.71300
O300        O  0.46142871  0.93233408  0.33775670    -0.45600
C301        C  0.47248188  0.91015816  0.39757484     0.76000
O302        O  0.47974533  0.87050323  0.32724189    -0.57500
O303        O  0.49538896  0.91168396  0.39169148    -0.47600
O304        O  0.49628667  0.86376219  0.36235268    -0.53900
C305        C  0.53907224  0.91591535  0.35203794     0.86100
O306        O  0.49408444  0.92636822  0.31583960    -0.55800
O307        O  0.45812743  0.90590892  0.37929031    -0.59100
In308      In  0.77215588  0.92555909  0.39269043     1.36900
C309        C  0.76448908  0.93728626  0.44120059     0.78600
O310        O  0.73607091  0.94752823  0.38853233    -0.59800
O311        O  0.73709212  0.90923012  0.37770193    -0.50800
C312        C  0.79342941  0.95133964  0.35475761     0.71300
O313        O  0.80131639  0.95321653  0.37697607    -0.45600
C314        C  0.79335087  0.87974053  0.39076821     0.76000
O315        O  0.77400651  0.95263020  0.42584493    -0.57500
O316        O  0.77053135  0.88440440  0.38684940    -0.47600
O317        O  0.76129453  0.91579512  0.43214978    -0.53900
C318        C  0.72421653  0.92908359  0.37992619     0.86100
O319        O  0.77556635  0.93627653  0.35250549    -0.55800
O320        O  0.80617416  0.89896770  0.39582179    -0.59100
C321        C  0.65674830  0.95126825  0.37284882    -0.27200
C322        C  0.64570758  0.92999655  0.36211009     0.06400
C323        C  0.66103352  0.90907863  0.35621583     0.26000
C324        C  0.68659406  0.90927259  0.36162835    -0.11700
C325        C  0.69745547  0.93018518  0.37308967    -0.25600
C326        C  0.68236336  0.95136774  0.37845714     0.36800
C327        C  0.61812931  0.92901109  0.35840157     0.06400
F328        F  0.65117894  0.88793337  0.34627106    -0.19400
H329        H  0.69781958  0.89273214  0.35726631     0.16300
F330        F  0.69213322  0.97189430  0.38967964    -0.23100
H331        H  0.64545052  0.96775284  0.37719399     0.18100
C332        C  0.60136025  0.93635998  0.37767428     0.26000
C333        C  0.57553507  0.93304139  0.37494856    -0.11600
C334        C  0.56601015  0.92180230  0.35331132    -0.25700
C335        C  0.58260740  0.91514052  0.33373317     0.37000
C336        C  0.60837780  0.91907742  0.33616521    -0.27300
F337        F  0.60995554  0.94535435  0.39974806    -0.19400
H338        H  0.56306705  0.93818920  0.39030660     0.16300
F339        F  0.57398880  0.90465654  0.31233631    -0.23100
H340        H  0.62080751  0.91384404  0.32081518     0.18100
C341        C  0.85290120  0.00745329  0.25948848    -0.27200
C342        C  0.82732587  0.00491336  0.26561831     0.06400
C343        C  0.80934179  0.01304532  0.24810635     0.26000
C344        C  0.81680215  0.02197394  0.22447599    -0.11700
C345        C  0.84235467  0.02293796  0.21762345    -0.25600
C346        C  0.86040493  0.01620365  0.23573709     0.36800
C347        C  0.81942275  0.99142429  0.28892353     0.06400
F348        F  0.78443318  0.01152348  0.25355629    -0.19400
H349        H  0.80244820  0.02693789  0.21105699     0.16300
F350        F  0.88532004  0.01681920  0.23013147    -0.23100
H351        H  0.86710628  0.00133389  0.27260942     0.18100
C352        C  0.80404492  0.97021747  0.28713862     0.26000
C353        C  0.79617645  0.95746599  0.30862602    -0.11600
C354        C  0.80351974  0.96519916  0.33262152    -0.25700
C355        C  0.81936454  0.98616213  0.33458120     0.37000
C356        C  0.82732844  0.99905552  0.31285055    -0.27300
F357        F  0.79697571  0.96141777  0.26443987    -0.19400
H358        H  0.78422935  0.94129381  0.30637835     0.16300
F359        F  0.82662879  0.99455309  0.35736779    -0.23100
H360        H  0.83930546  0.01525319  0.31471086     0.18100
C361        C  0.83364094  0.85501711  0.11161945    -0.27200
C362        C  0.84490975  0.86789833  0.13139182     0.06400
C363        C  0.85862245  0.85452690  0.14937356     0.26000
C364        C  0.86205494  0.82867867  0.14689055    -0.11700
C365        C  0.85192247  0.81583637  0.12640884    -0.25600
C366        C  0.83698261  0.82906380  0.10915702     0.36800
C367        C  0.84507343  0.89546113  0.13167109     0.06400
F368        F  0.87008919  0.86673361  0.16836779    -0.19400
H369        H  0.87369479  0.81892139  0.16037259     0.16300
F370        F  0.82622977  0.81709984  0.08960571    -0.23100
H371        H  0.82296673  0.86522199  0.09767955     0.18100
C372        C  0.85966787  0.90836517  0.11395752     0.26000
C373        C  0.86246629  0.93429504  0.11584013    -0.11600
C374        C  0.85037848  0.94774867  0.13514510    -0.25700
C375        C  0.83510966  0.93485050  0.15248522     0.37000
C376        C  0.83273835  0.90879257  0.15085520    -0.27300
F377        F  0.87201941  0.89568896  0.09544873    -0.19400
H378        H  0.87420823  0.94385186  0.10225642     0.16300
F379        F  0.82325183  0.94722469  0.17150724    -0.23100
H380        H  0.82162973  0.89893398  0.16475631     0.18100
C381        C  0.72474592  0.95203450  0.55940557    -0.27200
C382        C  0.72103889  0.96582819  0.53725563     0.06400
C383        C  0.70373015  0.98594973  0.53752927     0.26000
C384        C  0.69088907  0.99241360  0.55962376    -0.11700
C385        C  0.69483214  0.97889931  0.58191399    -0.25600
C386        C  0.71183471  0.95847450  0.58155922     0.36800
C387        C  0.73419814  0.95833489  0.51365549     0.06400
F388        F  0.69863581  0.99889942  0.51624029    -0.19400
H389        H  0.67769694  0.00802867  0.55922215     0.16300
F390        F  0.71620063  0.94487382  0.60259718    -0.23100
H391        H  0.73781399  0.93631085  0.55955533     0.18100
C392        C  0.74796044  0.97571924  0.49928868     0.26000
C393        C  0.75870957  0.96859404  0.47619678    -0.11600
C394        C  0.75597245  0.94402727  0.46702013    -0.25700
C395        C  0.74281075  0.92650863  0.48188550     0.37000
C396        C  0.73220447  0.93362854  0.50491443    -0.27300
F397        F  0.75096235  0.99958959  0.50756776    -0.19400
H398        H  0.76867802  0.98247002  0.46522591     0.16300
F399        F  0.73925888  0.90265470  0.47381798    -0.23100
H400        H  0.72162785  0.91996610  0.51559706     0.18100
C401        C  0.65283360  0.16862626  0.60669240    -0.27200
C402        C  0.66334048  0.15982281  0.62909252     0.06400
C403        C  0.67337565  0.17714543  0.64605891     0.26000
C404        C  0.67179637  0.20290141  0.64105922    -0.11700
C405        C  0.66043911  0.21169843  0.61901067    -0.25600
C406        C  0.65127150  0.19426390  0.60167927     0.36800
C407        C  0.66263184  0.13265676  0.63479427     0.06400
F408        F  0.68371423  0.16927819  0.66788148    -0.19400
H409        H  0.67905305  0.21599045  0.65465973     0.16300
F410        F  0.63995086  0.20192860  0.58028587    -0.23100
H411        H  0.64540269  0.15555615  0.59316856     0.18100
C412        C  0.64004077  0.11947154  0.63231397     0.26000
C413        C  0.63957608  0.09359656  0.63590599    -0.11600
C414        C  0.66155945  0.08029885  0.64206236    -0.25700
C415        C  0.68401640  0.09353757  0.64549350     0.37000
C416        C  0.68449642  0.11955801  0.64184077    -0.27300
F417        F  0.61834350  0.13163254  0.62639828    -0.19400
H418        H  0.62198028  0.08389572  0.63341999     0.16300
F419        F  0.70548568  0.08138911  0.65214454    -0.23100
H420        H  0.70207949  0.12937850  0.64387589     0.18100
C421        C  0.78995179  0.68814394  0.05537635    -0.27200
C422        C  0.78507665  0.70187288  0.03343126     0.06400
C423        C  0.80262203  0.71978113  0.02541216     0.26000
C424        C  0.82380929  0.72482156  0.03988429    -0.11700
C425        C  0.82791279  0.71217752  0.06265277    -0.25600
C426        C  0.81110881  0.69317341  0.06988299     0.36800
C427        C  0.76054969  0.69901254  0.02064304     0.06400
F428        F  0.79894546  0.73284215  0.00390491    -0.19400
H429        H  0.83647763  0.73942662  0.03376166     0.16300
F430        F  0.81415225  0.68051780  0.09173248    -0.23100
H431        H  0.77661080  0.67438023  0.06203407     0.18100
C432        C  0.75164849  0.67515215  0.01418356     0.26000
C433        C  0.72690972  0.67225393  0.00609120    -0.11600
C434        C  0.71042113  0.69301579  0.00447051    -0.25700
C435        C  0.71982473  0.71711727  0.00941230     0.37000
C436        C  0.74467592  0.72001459  0.01736090    -0.27300
F437        F  0.76664617  0.65452298  0.01647075    -0.19400
H438        H  0.72031239  0.65349213  0.00222462     0.16300
F439        F  0.70471027  0.73773430  0.00792524    -0.23100
H440        H  0.75108491  0.73858210  0.02232853     0.18100
C441        C  0.54199681  0.74580488  0.33681991    -0.27200
C442        C  0.52100629  0.75289470  0.32246400     0.06400
C443        C  0.51380782  0.73710454  0.30267492     0.26000
C444        C  0.52780733  0.71534691  0.29701857    -0.11700
C445        C  0.54907679  0.70862643  0.31108697    -0.25600
C446        C  0.55575104  0.72388211  0.33139111     0.36800
C447        C  0.50802807  0.77748065  0.32738933     0.06400
F448        F  0.49336045  0.74273267  0.28865826    -0.19400
H449        H  0.52228538  0.70398127  0.28121394     0.16300
F450        F  0.57649128  0.71852354  0.34507121    -0.23100
H451        H  0.54848152  0.75781661  0.35173015     0.18100
C452        C  0.50339295  0.78576039  0.35207879     0.26000
C453        C  0.49535727  0.81043136  0.35670923    -0.11600
C454        C  0.49116729  0.82727884  0.33690056    -0.25700
C455        C  0.49360440  0.81845912  0.31216332     0.37000
C456        C  0.50223952  0.79389846  0.30750517    -0.27300
F457        F  0.50730444  0.77021880  0.37184424    -0.19400
H458        H  0.49329593  0.81666031  0.37594153     0.16300
F459        F  0.48960690  0.83410151  0.29249515    -0.23100
H460        H  0.50575381  0.78825784  0.28830269     0.18100
C461        C  0.60745437  0.65793281  0.11520663    -0.27200
C462        C  0.60642030  0.68073356  0.12836896     0.06400
C463        C  0.61065393  0.70331101  0.11541834     0.26000
C464        C  0.61654265  0.70286894  0.08987153    -0.11700
C465        C  0.61780905  0.68000062  0.07682906    -0.25600
C466        C  0.61277486  0.65751543  0.08964301     0.36800
C467        C  0.60256358  0.68035548  0.15579127     0.06400
F468        F  0.60886115  0.72575227  0.12738593    -0.19400
H469        H  0.61991004  0.72043336  0.08023991     0.16300
F470        F  0.61359100  0.63502031  0.07768471    -0.23100
H471        H  0.60473681  0.64026536  0.12486226     0.18100
C472        C  0.58399637  0.66512383  0.16664310     0.26000
C473        C  0.58300725  0.66186992  0.19249581    -0.11600
C474        C  0.60031357  0.67387803  0.20800916    -0.25700
C475        C  0.61792700  0.69031360  0.19733032     0.37000
C476        C  0.61909116  0.69336350  0.17138239    -0.27300
F477        F  0.56710996  0.65298096  0.15222514    -0.19400
H478        H  0.56900790  0.64941323  0.20031385     0.16300
F479        F  0.63456906  0.70274388  0.21177282    -0.23100
H480        H  0.63367139  0.70503664  0.16341935     0.18100
C481        C  0.49245755  0.77541409  0.95756478    -0.27200
C482        C  0.50678509  0.75700795  0.94477125     0.06400
C483        C  0.49642083  0.74553634  0.92358948     0.26000
C484        C  0.47200095  0.75161741  0.91604022    -0.11700
C485        C  0.45719238  0.76921575  0.92938477    -0.25600
C486        C  0.46796687  0.78164843  0.94987773     0.36800
C487        C  0.53100018  0.74750541  0.95517501     0.06400
F488        F  0.50919937  0.72708605  0.91120771    -0.19400
H489        H  0.46431588  0.74172932  0.90017722     0.16300
F490        F  0.45454305  0.79898027  0.96314856    -0.23100
H491        H  0.50002372  0.78446895  0.97397457     0.18100
C492        C  0.55289205  0.74508859  0.94024375     0.26000
C493        C  0.57431147  0.73266538  0.94949894    -0.11600
C494        C  0.57426040  0.72234230  0.97373078    -0.25700
C495        C  0.55277758  0.72602335  0.98906308     0.37000
C496        C  0.53151847  0.73847991  0.97984585    -0.27300
F497        F  0.55344108  0.75443486  0.91660062    -0.19400
H498        H  0.59067034  0.73048598  0.93744325     0.16300
F499        F  0.55197813  0.71708918  0.01287177    -0.23100
H500        H  0.51496184  0.74011715  0.99172384     0.18100
C501        C  0.32603221  0.60980549  0.91671524    -0.27200
C502        C  0.34647563  0.62228223  0.92733566     0.06400
C503        C  0.36718636  0.60807153  0.93570430     0.26000
C504        C  0.36794500  0.58210954  0.93218092    -0.11700
C505        C  0.34826945  0.56984142  0.92003445    -0.25600
C506        C  0.32694981  0.58385777  0.91283700     0.36800
C507        C  0.34769414  0.65006258  0.92669795     0.06400
F508        F  0.38756113  0.61943429  0.94555582    -0.19400
H509        H  0.38457750  0.57177995  0.93786761     0.16300
F510        F  0.30747773  0.57277676  0.90106050    -0.23100
H511        H  0.30974939  0.62034295  0.91043942     0.18100
C512        C  0.34338166  0.66296406  0.90412795     0.26000
C513        C  0.34852935  0.68848805  0.90225780    -0.11600
C514        C  0.35820170  0.70167363  0.92271397    -0.25700
C515        C  0.36104875  0.68921416  0.94576598     0.37000
C516        C  0.35578600  0.66359401  0.94768558    -0.27300
F517        F  0.33588158  0.65060381  0.88330354    -0.19400
H518        H  0.34592507  0.69768971  0.88436073     0.16300
F519        F  0.36957399  0.70152116  0.96620663    -0.23100
H520        H  0.35878124  0.65411925  0.96537528     0.18100
C521        C  0.04397863  0.78469008  0.08938666    -0.27200
C522        C  0.02636991  0.77550212  0.07222214     0.06400
C523        C  0.03200296  0.77692310  0.04648714     0.26000
C524        C  0.05438213  0.78788250  0.03821356    -0.11700
C525        C  0.07159171  0.79793780  0.05529389    -0.25600
C526        C  0.06638636  0.79575803  0.08108730     0.36800
C527        C  0.00117756  0.76712862  0.08112098     0.06400
F528        F  0.01513073  0.76932849  0.02922193    -0.19400
H529        H  0.05773760  0.78941240  0.01823302     0.16300
F530        F  0.08235340  0.80521457  0.09827032    -0.23100
H531        H  0.04002446  0.78388544  0.10930827     0.18100
C532        C  0.99043565  0.74443454  0.07308788     0.26000
C533        C  0.96587384  0.73809989  0.08051758    -0.11600
C534        C  0.95160625  0.75433759  0.09592347    -0.25700
C535        C  0.96274390  0.77665033  0.10445761     0.37000
C536        C  0.98715185  0.78284422  0.09714559    -0.27300
F537        F  0.00368725  0.72837870  0.05815132    -0.19400
H538        H  0.95784440  0.72078262  0.07380631     0.16300
F539        F  0.94997919  0.79280866  0.11972132    -0.23100
H540        H  0.99489296  0.80043517  0.10351390     0.18100
C541        C  0.23617360  0.79911403  0.00019045    -0.27200
C542        C  0.25208852  0.81914592  0.99400317     0.06400
C543        C  0.24466415  0.84366917  0.00068890     0.26000
C544        C  0.22118001  0.84807003  0.01205784    -0.11700
C545        C  0.20472776  0.82814380  0.01718030    -0.25600
C546        C  0.21280956  0.80347131  0.01181808     0.36800
C547        C  0.27516526  0.81438159  0.97867868     0.06400
F548        F  0.25929733  0.86353898  0.99465454    -0.19400
H549        H  0.21536375  0.86726793  0.01580045     0.16300
F550        F  0.19745004  0.78370802  0.01609128    -0.23100
H551        H  0.24154772  0.78006545  0.99524087     0.18100
C552        C  0.29907973  0.82190337  0.98664253     0.26000
C553        C  0.32058678  0.81614962  0.97217541    -0.11600
C554        C  0.31860545  0.80306008  0.94940200    -0.25700
C555        C  0.29447826  0.79628329  0.94115919     0.37000
C556        C  0.27315139  0.80178529  0.95572615    -0.27300
F557        F  0.30174575  0.83395392  0.00883317    -0.19400
H558        H  0.33884734  0.82150573  0.97904097     0.16300
F559        F  0.29139203  0.78375190  0.91927954    -0.23100
H560        H  0.25489997  0.79608504  0.94907696     0.18100
C561        C  0.09612287  0.85755146  0.85846002    -0.27200
C562        C  0.11805997  0.84758159  0.86903050     0.06400
C563        C  0.13793828  0.83979010  0.85321914     0.26000
C564        C  0.13627563  0.84329681  0.82728962    -0.11700
C565        C  0.11468176  0.85430653  0.81680736    -0.25600
C566        C  0.09431944  0.86082106  0.83264709     0.36800
C567        C  0.12015694  0.84635210  0.89658265     0.06400
F568        F  0.15935185  0.82989137  0.86290765    -0.19400
H569        H  0.15212364  0.83799575  0.81548598     0.16300
F570        F  0.07292489  0.87118619  0.82339402    -0.23100
H571        H  0.08043685  0.86320381  0.87033458     0.18100
C572        C  0.11560193  0.86792491  0.91118196     0.26000
C573        C  0.11660901  0.86660300  0.93723357    -0.11600
C574        C  0.12225539  0.84381467  0.94922668    -0.25700
C575        C  0.12696507  0.82222502  0.93461474     0.37000
C576        C  0.12595774  0.82357145  0.90848574    -0.27300
F577        F  0.11058841  0.89040301  0.90021030    -0.19400
H578        H  0.11315972  0.88353380  0.94802589     0.16300
F579        F  0.13229831  0.79978667  0.94549815    -0.23100
H580        H  0.12929008  0.80672729  0.89753146     0.18100
C581        C  0.01681465  0.74228393  0.72119541    -0.27200
C582        C  0.01796197  0.75916956  0.70095569     0.06400
C583        C  0.00767444  0.75185581  0.67791354     0.26000
C584        C  0.99739466  0.72786420  0.67508776    -0.11700
C585        C  0.99726804  0.71062285  0.69508780    -0.25600
C586        C  0.00650328  0.71839292  0.71841272     0.36800
C587        C  0.03085681  0.78374107  0.70404718     0.06400
F588        F  0.00781695  0.76775565  0.65804360    -0.19400
H589        H  0.99049819  0.72240851  0.65688158     0.16300
F590        F  0.00658387  0.70256367  0.73833696    -0.23100
H591        H  0.02481777  0.74723276  0.73907865     0.18100
C592        C  0.02613798  0.79866707  0.72534521     0.26000
C593        C  0.04049799  0.81997689  0.72992588    -0.11600
C594        C  0.06003057  0.82696461  0.71352619    -0.25700
C595        C  0.06387632  0.81293617  0.69143101     0.37000
C596        C  0.04940778  0.79152734  0.68679821    -0.27300
F597        F  0.00795371  0.79233944  0.74212056    -0.19400
H598        H  0.03699306  0.83040806  0.74703987     0.16300
F599        F  0.08215245  0.81931859  0.67477422    -0.23100
H600        H  0.05352596  0.78037817  0.67027509     0.18100
C601        C  0.29540245  0.53279768  0.74387444    -0.27200
C602        C  0.32126633  0.53102824  0.74834500     0.06400
C603        C  0.33815290  0.54051956  0.73028951     0.26000
C604        C  0.32917522  0.55259083  0.70875583    -0.11700
C605        C  0.30323549  0.55557180  0.70494644    -0.25600
C606        C  0.28640289  0.54501478  0.72252193     0.36800
C607        C  0.33019580  0.52181706  0.77300871     0.06400
F608        F  0.36333190  0.53860896  0.73378860    -0.19400
H609        H  0.34252173  0.56037294  0.69550767     0.16300
F610        F  0.26116038  0.54709786  0.71953525    -0.23100
H611        H  0.28207896  0.52573052  0.75756166     0.18100
C612        C  0.34466863  0.53754235  0.78810009     0.26000
C613        C  0.35149777  0.53002120  0.81211394    -0.11600
C614        C  0.34375144  0.50683806  0.82198638    -0.25700
C615        C  0.32946741  0.49084360  0.80684246     0.37000
C616        C  0.32270614  0.49837128  0.78254537    -0.27300
F617        F  0.35101286  0.56088144  0.78018582    -0.19400
H618        H  0.36219559  0.54293330  0.82337631     0.16300
F619        F  0.32181897  0.46820034  0.81553084    -0.23100
H620        H  0.31136439  0.48605522  0.77125524     0.18100
C621        C  0.10879783  0.61985673  0.69494435    -0.27200
C622        C  0.11932526  0.61057050  0.67259085     0.06400
C623        C  0.10375110  0.60531904  0.65226507     0.26000
C624        C  0.07798623  0.61003118  0.65409572    -0.11700
C625        C  0.06737913  0.61983261  0.67628253    -0.25600
C626        C  0.08295549  0.62430668  0.69692017     0.36800
C627        C  0.14671970  0.60788808  0.66998191     0.06400
F628        F  0.11361205  0.59658676  0.63035396    -0.19400
H629        H  0.06637469  0.60630096  0.63799035     0.16300
F630        F  0.07336979  0.63334344  0.71881352    -0.23100
H631        H  0.12069401  0.62388390  0.71076976     0.18100
C632        C  0.16193925  0.62917034  0.67132287     0.26000
C633        C  0.18780245  0.62688857  0.66760086    -0.11600
C634        C  0.19882729  0.60338264  0.66239464    -0.25700
C635        C  0.18360725  0.58196235  0.66153962     0.37000
C636        C  0.15766010  0.58429014  0.66521627    -0.27300
F637        F  0.15163828  0.65227048  0.67531628    -0.19400
H638        H  0.19914866  0.64364541  0.66822342     0.16300
F639        F  0.19376290  0.55883842  0.65736125    -0.23100
H640        H  0.14605623  0.56772707  0.66430271     0.18100
C641        C  0.92403954  0.49533799  0.75682494    -0.27200
C642        C  0.94881373  0.50398362  0.75778901     0.06400
C643        C  0.96759452  0.48786731  0.76735411     0.26000
C644        C  0.96199784  0.46299081  0.77373114    -0.11700
C645        C  0.93759052  0.45369794  0.77080559    -0.25600
C646        C  0.91841307  0.47047883  0.76317813     0.36800
C647        C  0.95543624  0.52819270  0.74552564     0.06400
F648        F  0.99161983  0.49587034  0.76949487    -0.19400
H649        H  0.97706168  0.45066683  0.77981552     0.16300
F650        F  0.89442309  0.46258743  0.76046433    -0.23100
H651        H  0.90926353  0.50737287  0.74959046     0.18100
C652        C  0.97384050  0.52834345  0.72650978     0.26000
C653        C  0.97930002  0.55038879  0.71364426    -0.11600
C654        C  0.96651921  0.57300252  0.71907879    -0.25700
C655        C  0.94786407  0.57302349  0.73798353     0.37000
C656        C  0.94232630  0.55070165  0.75101569    -0.27300
F657        F  0.98593333  0.50684985  0.71954818    -0.19400
H658        H  0.99357398  0.54958316  0.69905979     0.16300
F659        F  0.93510202  0.59443653  0.74390466    -0.23100
H660        H  0.92782207  0.55095518  0.76538459     0.18100
C661        C  0.72634222  0.34717262  0.53744364    -0.27200
C662        C  0.74471620  0.32945436  0.52962276     0.06400
C663        C  0.74071949  0.30398358  0.53535201     0.26000
C664        C  0.71918787  0.29659262  0.54847369    -0.11700
C665        C  0.70129414  0.31427526  0.55706126    -0.25600
C666        C  0.70497301  0.33976570  0.55120137     0.36800
C667        C  0.76907041  0.33773024  0.51807260     0.06400
F668        F  0.75846159  0.28625444  0.53000840    -0.19400
H669        H  0.71718779  0.27688314  0.55298640     0.16300
F670        F  0.68844049  0.35760495  0.55936085    -0.23100
H671        H  0.72883990  0.36692718  0.53343303     0.18100
C672        C  0.78096089  0.32427795  0.49836142     0.26000
C673        C  0.80549309  0.33021495  0.49057941    -0.11600
C674        C  0.81852338  0.34993896  0.50187940    -0.25700
C675        C  0.80589529  0.36457840  0.52017641     0.37000
C676        C  0.78162188  0.35841645  0.52819413    -0.27300
F677        F  0.76900711  0.30525741  0.48667483    -0.19400
H678        H  0.81454308  0.31891072  0.47617479     0.16300
F679        F  0.81726954  0.38444218  0.53105907    -0.23100
H680        H  0.77308653  0.36927976  0.54322160     0.18100
C681        C  0.92968164  0.38298386  0.60177093    -0.27200
C682        C  0.93345003  0.36027323  0.61458098     0.06400
C683        C  0.93235037  0.33752740  0.60124833     0.26000
C684        C  0.92619487  0.33756699  0.57588370    -0.11700
C685        C  0.92132254  0.36024702  0.56338378    -0.25600
C686        C  0.92383940  0.38306582  0.57638365     0.36800
C687        C  0.93546545  0.36051062  0.64218441     0.06400
F688        F  0.93674214  0.31525838  0.61286106    -0.19400
H689        H  0.92474817  0.31980705  0.56614738     0.16300
F690        F  0.91953536  0.40545897  0.56495866    -0.23100
H691        H  0.93005271  0.40070791  0.61169905     0.18100
C692        C  0.95123407  0.37751326  0.65446763     0.26000
C693        C  0.95010944  0.37988340  0.68052988    -0.11600
C694        C  0.93324993  0.36540138  0.69466989    -0.25700
C695        C  0.91835593  0.34759195  0.68245395     0.37000
C696        C  0.91943059  0.34530232  0.65647883    -0.27300
F697        F  0.96741205  0.39208110  0.64125295    -0.19400
H698        H  0.96192090  0.39354722  0.68957509     0.16300
F699        F  0.90237492  0.33266271  0.69550000    -0.23100
H700        H  0.90688269  0.33230739  0.64744653     0.18100
C701        C  0.09615842  0.04601330  0.78194048    -0.27200
C702        C  0.07914373  0.02805327  0.77314525     0.06400
C703        C  0.05324942  0.03277417  0.77590536     0.26000
C704        C  0.04467073  0.05439932  0.78821799    -0.11700
C705        C  0.06163138  0.07166669  0.79840504    -0.25600
C706        C  0.08753702  0.06770192  0.79439693     0.36800
C707        C  0.08827277  0.00304152  0.76445366     0.06400
F708        F  0.03622995  0.01547222  0.76864190    -0.19400
H709        H  0.02460886  0.05684329  0.79103948     0.16300
F710        F  0.10455224  0.08403947  0.80355168    -0.23100
H711        H  0.11620368  0.04271295  0.78001618     0.18100
C712        C  0.07985074  0.99219939  0.74202189     0.26000
C713        C  0.08616011  0.96723438  0.73607682    -0.11600
C714        C  0.10095245  0.95270408  0.75236945    -0.25700
C715        C  0.11009445  0.96397354  0.77434659     0.37000
C716        C  0.10384317  0.98882734  0.78017917    -0.27300
F717        F  0.06528378  0.00563798  0.72604448    -0.19400
H718        H  0.07902948  0.95911249  0.71899698     0.16300
F719        F  0.12424662  0.95074269  0.79086842    -0.23100
H720        H  0.11031054  0.99666574  0.79766979     0.18100
C721        C  0.99109412  0.29178282  0.82730578    -0.27200
C722        C  0.99320806  0.27108894  0.81097330     0.06400
C723        C  0.98273790  0.27303184  0.78700334     0.26000
C724        C  0.97003426  0.29493553  0.77974885    -0.11700
C725        C  0.96750731  0.31557724  0.79609192    -0.25600
C726        C  0.97859090  0.31394897  0.81989934     0.36800
C727        C  0.00376321  0.24661543  0.81968885     0.06400
F728        F  0.98360993  0.25320898  0.77102560    -0.19400
H729        H  0.96172818  0.29552989  0.76131376     0.16300
F730        F  0.97672393  0.33338264  0.83626547    -0.23100
H731        H  0.99883387  0.29059996  0.84596311     0.18100
C732        C  0.02332095  0.23411363  0.80657584     0.26000
C733        C  0.03065758  0.20959449  0.81333636    -0.11600
C734        C  0.01843026  0.19704124  0.83308115    -0.25700
C735        C  0.99949403  0.21003697  0.84668929     0.37000
C736        C  0.99244390  0.23451736  0.84011507    -0.27300
F737        F  0.03508032  0.24550390  0.78704724    -0.19400
H738        H  0.04536280  0.20016961  0.80265779     0.16300
F739        F  0.98729465  0.19894664  0.86613312    -0.23100
H740        H  0.97730371  0.24370114  0.85040778     0.18100
C741        C  0.69971686  0.02958363  0.81312202    -0.27200
C742        C  0.70860162  0.03478948  0.78882528     0.06400
C743        C  0.72571488  0.05445536  0.78540877     0.26000
C744        C  0.73378744  0.06847466  0.80589114    -0.11700
C745        C  0.72499773  0.06336922  0.83028665    -0.25600
C746        C  0.70793264  0.04356697  0.83373657     0.36800
C747        C  0.69878161  0.02116059  0.76675024     0.06400
F748        F  0.73387177  0.06075641  0.76208503    -0.19400
H749        H  0.74687979  0.08364429  0.80254104     0.16300
F750        F  0.69910301  0.03778748  0.85692340    -0.23100
H751        H  0.68630828  0.01459706  0.81611458     0.18100
C752        C  0.71515339  0.00975107  0.74921269     0.26000
C753        C  0.70603805  0.00105753  0.72627983    -0.11600
C754        C  0.68042027  0.00361656  0.72048136    -0.25700
C755        C  0.66378334  0.01325147  0.73889431     0.37000
C756        C  0.67292524  0.02188320  0.76181493    -0.27300
F757        F  0.74014155  0.00788643  0.75383640    -0.19400
H758        H  0.71915954  0.99358933  0.71264698     0.16300
F759        F  0.63887420  0.01603835  0.73421803    -0.23100
H760        H  0.66007416  0.03049110  0.77499561     0.18100
C761        C  0.76527042  0.06361124  0.00042842    -0.27200
C762        C  0.78487576  0.07695759  0.01179611     0.06400
C763        C  0.79484430  0.09776894  0.99893195     0.26000
C764        C  0.78533979  0.10497794  0.97559142    -0.11700
C765        C  0.76610477  0.09136364  0.96403673    -0.25600
C766        C  0.75608499  0.07056967  0.97679176     0.36800
C767        C  0.79588423  0.06807468  0.03606796     0.06400
F768        F  0.81484723  0.11029237  0.00809513    -0.19400
H769        H  0.79388217  0.12072702  0.96604045     0.16300
F770        F  0.73784214  0.05658015  0.96622343    -0.23100
H771        H  0.75723691  0.04747132  0.00974549     0.18100
C772        C  0.80173829  0.08483469  0.05561959     0.26000
C773        C  0.81352494  0.07614485  0.07750232    -0.11600
C774        C  0.81958571  0.05057645  0.08054955    -0.25700
C775        C  0.81275814  0.03371342  0.06145331     0.37000
C776        C  0.80117312  0.04240501  0.03958435    -0.27300
F777        F  0.79577754  0.10959743  0.05379376    -0.19400
H778        H  0.81823787  0.08952581  0.09194142     0.16300
F779        F  0.81738768  0.00870989  0.06374598    -0.23100
H780        H  0.79685624  0.02898668  0.02504580     0.18100
C781        C  0.92385480  0.08757766  0.88721680    -0.27200
C782        C  0.90837052  0.08764896  0.86612313     0.06400
C783        C  0.91907565  0.08962377  0.84212829     0.26000
C784        C  0.94481449  0.09317391  0.83935716    -0.11700
C785        C  0.96018787  0.09499180  0.86048238    -0.25600
C786        C  0.94970376  0.09125825  0.88447895     0.36800
C787        C  0.88100121  0.08966285  0.86921252     0.06400
F788        F  0.90437872  0.08947453  0.82147998    -0.19400
H789        H  0.95253269  0.09569475  0.82068735     0.16300
F790        F  0.96399332  0.09304464  0.90531538    -0.23100
H791        H  0.91570565  0.08630802  0.90584163     0.18100
C792        C  0.86695596  0.07034195  0.88012411     0.26000
C793        C  0.84091576  0.07311390  0.88284844    -0.11600
C794        C  0.82876083  0.09528002  0.87493848    -0.25700
C795        C  0.84307182  0.11466023  0.86424459     0.37000
C796        C  0.86893048  0.11174317  0.86136289    -0.27300
F797        F  0.87837261  0.04881479  0.88781112    -0.19400
H798        H  0.83030126  0.05803061  0.89131442     0.16300
F799        F  0.83224234  0.13659990  0.85686323    -0.23100
H800        H  0.87969400  0.12692327  0.85323661     0.07700
C801        C  0.43238964  0.03672388  0.25216888    -0.27200
C802        C  0.45515713  0.03076978  0.26390979     0.06400
C803        C  0.47404211  0.04910821  0.26482319     0.26000
C804        C  0.46959615  0.07327778  0.25528050    -0.11700
C805        C  0.44626186  0.07958563  0.24478929    -0.25600
C806        C  0.42793643  0.06083076  0.24268991     0.36800
C807        C  0.45861051  0.00591772  0.27620719     0.06400
F808        F  0.49618921  0.04415129  0.27632470    -0.19400
H809        H  0.48388795  0.08744190  0.25737690     0.16300
F810        F  0.40540675  0.06596781  0.23202740    -0.23100
H811        H  0.41779244  0.02277830  0.25081197     0.18100
C812        C  0.44122479  0.99732744  0.29425735     0.26000
C813        C  0.44575311  0.97491954  0.30732986    -0.11600
C814        C  0.46750715  0.96049224  0.30245959    -0.25700
C815        C  0.48414632  0.96843582  0.28336542     0.37000
C816        C  0.47978884  0.99099761  0.27059742    -0.27300
F817        F  0.42048679  0.01123690  0.30016594    -0.19400
H818        H  0.43262612  0.96928934  0.32185239     0.16300
F819        F  0.50513425  0.95488257  0.27752279    -0.23100
H820        H  0.49317330  0.99700949  0.25646536     0.18100
C821        C  0.50454464  0.23021888  0.54806464    -0.27200
C822        C  0.50256043  0.24429889  0.57017183     0.06400
C823        C  0.47951798  0.24454903  0.58340678     0.26000
C824        C  0.45873776  0.23138462  0.57419291    -0.11700
C825        C  0.46076330  0.21729600  0.55196037    -0.25600
C826        C  0.48411725  0.21665670  0.53917252     0.36800
C827        C  0.52510038  0.25768300  0.57942592     0.06400
F828        F  0.47701234  0.25782151  0.60499366    -0.19400
H829        H  0.44110555  0.23214657  0.58447453     0.16300
F830        F  0.48730502  0.20309824  0.51782639    -0.23100
H831        H  0.52219894  0.22942305  0.53780011     0.18100
C832        C  0.53615708  0.25081406  0.60222346     0.26000
C833        C  0.55933522  0.26081708  0.60912147    -0.11600
C834        C  0.57216725  0.27777502  0.59341681    -0.25700
C835        C  0.56044455  0.28565728  0.57117529     0.37000
C836        C  0.53722338  0.27554557  0.56423427    -0.27300
F837        F  0.52543830  0.23307131  0.61699493    -0.19400
H838        H  0.56786131  0.25422342  0.62628007     0.16300
F839        F  0.57175039  0.30241304  0.55571174    -0.23100
H840        H  0.52898360  0.28113016  0.54658866     0.18100
C841        C  0.42646043  0.19868819  0.40419698    -0.27200
C842        C  0.43165826  0.17542433  0.39290170     0.06400
C843        C  0.43386565  0.15384971  0.40785870     0.26000
C844        C  0.42933600  0.15539224  0.43360636    -0.11700
C845        C  0.42272634  0.17845799  0.44476207    -0.25600
C846        C  0.42212729  0.20030014  0.42994579     0.36800
C847        C  0.43219090  0.17346272  0.36539725     0.06400
F848        F  0.43885768  0.13108851  0.39739046    -0.19400
H849        H  0.43018656  0.13836591  0.44468005     0.16300
F850        F  0.41638154  0.22304439  0.44006783    -0.23100
H851        H  0.42498224  0.21551595  0.39287813     0.18100
C852        C  0.41115372  0.18123642  0.35163004     0.26000
C853        C  0.41098384  0.17842921  0.32571199    -0.11600
C854        C  0.43177288  0.16787646  0.31306062    -0.25700
C855        C  0.45301364  0.16038122  0.32680496     0.37000
C856        C  0.45310879  0.16307442  0.35285396    -0.27300
F857        F  0.39037795  0.19067680  0.36338210    -0.19400
H858        H  0.39437760  0.18422876  0.31555925     0.16300
F859        F  0.47333115  0.14981335  0.31523331    -0.23100
H860        H  0.46942520  0.15694629  0.36327825     0.18100
C861        C  0.23718866  0.19874995  0.46783425    -0.27200
C862        C  0.25215444  0.21863929  0.47649650     0.06400
C863        C  0.24328491  0.24340245  0.47297574     0.26000
C864        C  0.22098714  0.24805715  0.46008224    -0.11700
C865        C  0.20645938  0.22829565  0.45076976    -0.25600
C866        C  0.21443561  0.20347962  0.45533595     0.36800
C867        C  0.27751291  0.21377970  0.48773874     0.06400
F868        F  0.25611561  0.26328339  0.48204014    -0.19400
H869        H  0.21511907  0.26738568  0.45726614     0.16300
F870        F  0.20087680  0.18385470  0.44683387    -0.23100
H871        H  0.24350070  0.17949019  0.46993706     0.18100
C872        C  0.28177368  0.19412995  0.50496307     0.26000
C873        C  0.30603608  0.18931610  0.51417021    -0.11600
C874        C  0.32657936  0.20407516  0.50668493    -0.25700
C875        C  0.32215252  0.22415737  0.49007350     0.37000
C876        C  0.29807752  0.22869142  0.48060691    -0.27300
F877        F  0.26252979  0.17958413  0.51301383    -0.19400
H878        H  0.30882616  0.17369027  0.52685946     0.16300
F879        F  0.34126673  0.23890383  0.48206064    -0.23100
H880        H  0.29574480  0.24356160  0.46697454     0.18100
C881        C  0.99465365  0.31488510  0.44129863    -0.27200
C882        C  0.99800694  0.29005326  0.44944485     0.06400
C883        C  0.97841265  0.27826452  0.46255888     0.26000
C884        C  0.95593134  0.29135550  0.46773718    -0.11700
C885        C  0.95268692  0.31645513  0.46003199    -0.25600
C886        C  0.97232389  0.32804444  0.44655433     0.36800
C887        C  0.02192649  0.27668417  0.44363239     0.06400
F888        F  0.98102604  0.25411532  0.47028744    -0.19400
H889        H  0.94126627  0.28201809  0.47828219     0.16300
F890        F  0.97035121  0.35234188  0.43906897    -0.23100
H891        H  0.00959486  0.32423044  0.43113822     0.18100
C892        C  0.02769448  0.26987079  0.41886034     0.26000
C893        C  0.05141106  0.25998428  0.41267250    -0.11600
C894        C  0.06999061  0.25686608  0.43103147    -0.25700
C895        C  0.06382251  0.26279514  0.45611154     0.37000
C896        C  0.03992492  0.27256026  0.46230250    -0.27300
F897        F  0.01055503  0.27352103  0.40051433    -0.19400
H898        H  0.05556537  0.25569801  0.39323259     0.16300
F899        F  0.08125690  0.26056880  0.47439050    -0.23100
H900        H  0.03581830  0.27791855  0.48149318     0.18100
C901        C  0.20847740  0.55266873  0.50317753    -0.27200
C902        C  0.23064407  0.56664643  0.50132911     0.06400
C903        C  0.23821369  0.57549034  0.47756225     0.26000
C904        C  0.22382845  0.57032650  0.45623984    -0.11700
C905        C  0.20176451  0.55610974  0.45813536    -0.25600
C906        C  0.19421000  0.54742517  0.48199033     0.36800
C907        C  0.24514976  0.57195802  0.52451508     0.06400
F908        F  0.25992042  0.58838731  0.47478551    -0.19400
H909        H  0.23026275  0.57698527  0.43814470     0.16300
F910        F  0.17295297  0.53382836  0.48500615    -0.23100
H911        H  0.20201892  0.54590468  0.52123905     0.18100
C912        C  0.25175970  0.59661812  0.53103348     0.26000
C913        C  0.26203244  0.60168152  0.55456311    -0.11600
C914        C  0.26592723  0.58235760  0.57212321    -0.25700
C915        C  0.26052115  0.55752941  0.56512267     0.37000
C916        C  0.25025071  0.55247322  0.54160117    -0.27300
F917        F  0.24658892  0.61611227  0.51547982    -0.19400
H918        H  0.26584090  0.62099023  0.55949163     0.16300
F919        F  0.26356433  0.53830680  0.58154851    -0.23100
H920        H  0.24541837  0.53331464  0.53703669     0.18100
C921        C  0.16980476  0.36298476  0.38197286    -0.27200
C922        C  0.16809500  0.37648022  0.40453167     0.06400
C923        C  0.16391576  0.36361729  0.42709964     0.26000
C924        C  0.15985482  0.33793038  0.42693005    -0.11700
C925        C  0.16037705  0.32453733  0.40436163    -0.25600
C926        C  0.16619023  0.33703435  0.38185551     0.36800
C927        C  0.16845547  0.40407844  0.40449315     0.06400
F928        F  0.16336970  0.37601258  0.44931682    -0.19400
H929        H  0.15607525  0.32851915  0.44453608     0.16300
F930        F  0.16728044  0.32447334  0.35973514    -0.23100
H931        H  0.17295966  0.37265690  0.36438943     0.18100
C932        C  0.18777666  0.41736789  0.39251840     0.26000
C933        C  0.18747373  0.44355821  0.39288059    -0.11600
C934        C  0.16785784  0.45673163  0.40503243    -0.25700
C935        C  0.14863834  0.44335903  0.41711594     0.37000
C936        C  0.14893557  0.41727414  0.41668175    -0.27300
F937        F  0.20698835  0.40508087  0.38074409    -0.19400
H938        H  0.20234493  0.45353146  0.38325349     0.16300
F939        F  0.12943374  0.45539059  0.42917035    -0.23100
H940        H  0.13367535  0.40730252  0.42568578     0.18100
C941        C  0.18907521  0.48134258  0.23028799    -0.27200
C942        C  0.20387429  0.47962881  0.25197157     0.06400
C943        C  0.22518922  0.46376447  0.25140593     0.26000
C944        C  0.23179452  0.45056667  0.22952589    -0.11700
C945        C  0.21730823  0.45263594  0.20764005    -0.25600
C946        C  0.19567148  0.46808857  0.20836350     0.36800
C947        C  0.19623244  0.49334717  0.27536971     0.06400
F948        F  0.23925570  0.46038763  0.27224121    -0.19400
H949        H  0.24839678  0.43863536  0.22975643     0.16300
F950        F  0.18094152  0.47056997  0.18789488    -0.23100
H951        H  0.17241080  0.49319094  0.23027143     0.18100
C952        C  0.21323276  0.50822255  0.28888157     0.26000
C953        C  0.20582483  0.51977956  0.31153774    -0.11600
C954        C  0.18131211  0.51689004  0.32113563    -0.25700
C955        C  0.16419296  0.50257522  0.30715745     0.37000
C956        C  0.17159917  0.49110447  0.28463563    -0.27300
F957        F  0.23697205  0.51170180  0.28013590    -0.19400
H958        H  0.21944530  0.53054426  0.32184029     0.16300
F959        F  0.14040637  0.49876933  0.31563956    -0.23100
H960        H  0.15816024  0.47973655  0.27474013     0.18100
C961        C  0.31257852  0.45178283  0.99867204    -0.27200
C962        C  0.28628373  0.45343117  0.99760904     0.06400
C963        C  0.27494524  0.46006411  0.97486047     0.26000
C964        C  0.28981411  0.46558556  0.95370758    -0.11700
C965        C  0.31623288  0.46475165  0.95494470    -0.25600
C966        C  0.32745576  0.45735590  0.97763683     0.36800
C967        C  0.27115188  0.44893077  0.02066754     0.06400
F968        F  0.24955922  0.46196658  0.97334338    -0.19400
H969        H  0.28065717  0.47140743  0.93660296     0.16300
F970        F  0.35283667  0.45587651  0.97968169    -0.23100
H971        H  0.32161958  0.44654157  0.01602895     0.18100
C972        C  0.26144111  0.42507856  0.02592945     0.26000
C973        C  0.25064801  0.42000630  0.04946464    -0.11600
C974        C  0.24929516  0.43863568  0.06819395    -0.25700
C975        C  0.25751733  0.46301154  0.06217216     0.37000
C976        C  0.26848967  0.46797282  0.03869634    -0.27300
F977        F  0.26366808  0.40633142  0.00880872    -0.19400
H978        H  0.24453849  0.40107811  0.05346434     0.16300
F979        F  0.25635803  0.48171704  0.07941069    -0.23100
H980        H  0.27582248  0.48650220  0.03490391     0.18100
C981        C  0.46600103  0.26349144  0.20881440    -0.27200
C982        C  0.48854682  0.26186476  0.19508068     0.06400
C983        C  0.49719958  0.23809013  0.18706483     0.26000
C984        C  0.48372281  0.21635183  0.19329430    -0.11700
C985        C  0.46136155  0.21797547  0.20750877    -0.25600
C986        C  0.45247055  0.24193800  0.21487752     0.36800
C987        C  0.50265451  0.28522449  0.18950064     0.06400
F988        F  0.51913203  0.23581445  0.17404789    -0.19400
H989        H  0.49111506  0.19820932  0.18753979     0.16300
F990        F  0.43081327  0.24465710  0.22829457    -0.23100
H991        H  0.45882919  0.28162306  0.21490594     0.18100
C992        C  0.50755372  0.29267779  0.16469782     0.26000
C993        C  0.51812109  0.31618740  0.15971078    -0.11600
C994        C  0.52383544  0.33283159  0.17930636    -0.25700
C995        C  0.52000223  0.32482243  0.20416785     0.37000
C996        C  0.50944469  0.30130902  0.20912962    -0.27300
F997        F  0.50052141  0.27800474  0.14524945    -0.19400
H998        H  0.52054932  0.32190965  0.14037806     0.16300
F999        F  0.52552656  0.34004967  0.22368980    -0.23100
H1000       H  0.50591329  0.29587987  0.22838856     0.18100
C1001       C  0.56204709  0.54598222  0.25939866    -0.27200
C1002       C  0.58070891  0.53369871  0.24495549     0.06400
C1003       C  0.60497689  0.54390221  0.24417637     0.26000
C1004       C  0.60995951  0.56656546  0.25646889    -0.11700
C1005       C  0.59094104  0.57956416  0.26985059    -0.25600
C1006       C  0.56707651  0.56854353  0.27187511     0.36800
C1007       C  0.57401729  0.51157465  0.22928316     0.06400
F1008       F  0.62343083  0.53294334  0.23012289    -0.19400
H1009       H  0.62849104  0.57458634  0.25445166     0.16300
F1010       F  0.54817271  0.58019842  0.28471786    -0.23100
H1011       H  0.54325849  0.53839328  0.26044347     0.18100
C1012       C  0.58738570  0.48863210  0.23052939     0.26000
C1013       C  0.57989458  0.46789644  0.21618120    -0.11600
C1014       C  0.55910348  0.46969207  0.20016913    -0.25700
C1015       C  0.54636103  0.49299075  0.19834086     0.37000
C1016       C  0.55366144  0.51348949  0.21284743    -0.27300
F1017       F  0.60711936  0.48598254  0.24624998    -0.19400
H1018       H  0.59012779  0.45031080  0.21790481     0.16300
F1019       F  0.52657864  0.49604160  0.18271983    -0.23100
H1020       H  0.54333999  0.53104683  0.21120545     0.18100
C1021       C  0.36137401  0.39643305  0.15072304    -0.27200
C1022       C  0.37374285  0.41929362  0.15410411     0.06400
C1023       C  0.35963980  0.44175999  0.15460455     0.26000
C1024       C  0.33353370  0.44120700  0.15203992    -0.11700
C1025       C  0.32112259  0.41827245  0.14908102    -0.25600
C1026       C  0.33532109  0.39583379  0.14830308     0.36800
C1027       C  0.40133938  0.41941443  0.15694936     0.06400
F1028       F  0.37101717  0.46413539  0.15827740    -0.19400
H1029       H  0.32298814  0.45870080  0.15274334     0.16300
F1030       F  0.32413184  0.37329534  0.14499571    -0.23100
H1031       H  0.37197256  0.37897357  0.14982122     0.18100
C1032       C  0.41307868  0.40369041  0.17457406     0.26000
C1033       C  0.43923014  0.40303818  0.17634441    -0.11600
C1034       C  0.45410267  0.41783927  0.16043714    -0.25700
C1035       C  0.44234541  0.43390766  0.14309423     0.37000
C1036       C  0.41616600  0.43468635  0.14145828    -0.27300
F1037       F  0.39924118  0.38899972  0.19011735    -0.19400
H1038       H  0.44787600  0.39048474  0.18978600     0.16300
F1039       F  0.45609553  0.44879217  0.12766329    -0.23100
H1040       H  0.40746562  0.44680581  0.12766587     0.18100
C1041       C  0.38505598  0.81897481  0.74245680    -0.27200
C1042       C  0.37007076  0.82661371  0.76287698     0.06400
C1043       C  0.34700106  0.83853207  0.75837428     0.26000
C1044       C  0.33783000  0.84015482  0.73406065    -0.11700
C1045       C  0.35099914  0.82905445  0.71360306    -0.25600
C1046       C  0.37601695  0.82093287  0.71798097     0.36800
C1047       C  0.37652591  0.81880860  0.78860739     0.06400
F1048       F  0.33238848  0.84692305  0.77767190    -0.19400
H1049       H  0.31994904  0.84958611  0.73177731     0.16300
F1050       F  0.39073071  0.81238195  0.69883104    -0.23100
H1051       H  0.40326801  0.81032661  0.74559202     0.18100
C1052       C  0.37783825  0.79311817  0.79431878     0.26000
C1053       C  0.38059684  0.78523546  0.81904668    -0.11600
C1054       C  0.38199389  0.80276093  0.83866675    -0.25700
C1055       C  0.38142913  0.82855775  0.83288379     0.37000
C1056       C  0.37856730  0.83647386  0.80800064    -0.27300
F1057       F  0.37489742  0.77560458  0.77611901    -0.19400
H1058       H  0.38082700  0.76526535  0.82289398     0.16300
F1059       F  0.38303443  0.84607848  0.85122881    -0.23100
H1060       H  0.37740351  0.85636655  0.80389270     0.18100
C1061       C  0.22411178  0.88025312  0.69819019    -0.27200
C1062       C  0.23203861  0.85545012  0.69318722     0.06400
C1063       C  0.21402971  0.83625488  0.69353943     0.26000
C1064       C  0.18940866  0.84130305  0.70128320    -0.11700
C1065       C  0.18186106  0.86571468  0.70784453    -0.25600
C1066       C  0.19908701  0.88544709  0.70515432     0.36800
C1067       C  0.25919988  0.84889468  0.69064455     0.06400
F1068       F  0.22045387  0.81234652  0.68715578    -0.19400
H1069       H  0.17628337  0.82593553  0.70263993     0.16300
F1070       F  0.19226679  0.90939001  0.71097281    -0.23100
H1071       H  0.23753207  0.89539791  0.69807929     0.18100
C1072       C  0.27581867  0.86256682  0.67537829     0.26000
C1073       C  0.30126936  0.85554123  0.67364182    -0.11600
C1074       C  0.31105879  0.83515958  0.68775399    -0.25700
C1075       C  0.29382789  0.82142170  0.70264472     0.37000
C1076       C  0.26865390  0.82846890  0.70428355    -0.27300
F1077       F  0.26743879  0.88238533  0.66170001    -0.19400
H1078       H  0.31292467  0.86612551  0.66089624     0.16300
F1079       F  0.30151964  0.80145316  0.71649455    -0.23100
H1080       H  0.25649205  0.81795820  0.71672716     0.18100
C1081       C  0.33816890  0.70190108  0.65746303    -0.27200
C1082       C  0.32063567  0.72168175  0.66010791     0.06400
C1083       C  0.29489572  0.71624332  0.66032023     0.26000
C1084       C  0.28685350  0.69150334  0.65799099    -0.11700
C1085       C  0.30424897  0.67160716  0.65524242    -0.25600
C1086       C  0.33008656  0.67702503  0.65486755     0.36800
C1087       C  0.32893147  0.74772398  0.66479191     0.06400
F1088       F  0.27752171  0.73480211  0.66377019    -0.19400
H1089       H  0.26685229  0.68792216  0.65842981     0.16300
F1090       F  0.34748472  0.65833140  0.65262394    -0.23100
H1091       H  0.35811346  0.70575214  0.65761357     0.18100
C1092       C  0.34165489  0.75339048  0.68681714     0.26000
C1093       C  0.34602125  0.77831272  0.69344096    -0.11600
C1094       C  0.33850616  0.79870820  0.67795003    -0.25700
C1095       C  0.32612874  0.79244463  0.65534809     0.37000
C1096       C  0.32150729  0.76738668  0.64897100    -0.27300
F1097       F  0.34804694  0.73484113  0.70308582    -0.19400
H1098       H  0.35367666  0.78098630  0.71180466     0.16300
F1099       F  0.31758797  0.81072188  0.63977518    -0.23100
H1100       H  0.31134333  0.76333963  0.63198307     0.18100
C1101       C  0.45761914  0.95295024  0.50920777    -0.27200
C1102       C  0.44346028  0.93324742  0.49952183     0.06400
C1103       C  0.42592713  0.92136460  0.51517586     0.26000
C1104       C  0.42412399  0.92791097  0.54058573    -0.11700
C1105       C  0.44028426  0.94601266  0.55119906    -0.25600
C1106       C  0.45585878  0.95956826  0.53440510     0.36800
C1107       C  0.44927461  0.92421746  0.47381394     0.06400
F1108       F  0.41130340  0.90271979  0.50624439    -0.19400
H1109       H  0.41007317  0.91843880  0.55171178     0.16300
F1110       F  0.47083848  0.97822475  0.54264154    -0.23100
H1111       H  0.47081745  0.96280626  0.49726737     0.18100
C1112       C  0.43111578  0.92331096  0.45483598     0.26000
C1113       C  0.43841883  0.91784988  0.43000911    -0.11600
C1114       C  0.46386084  0.91333148  0.42390255    -0.25700
C1115       C  0.48161798  0.91293191  0.44330013     0.37000
C1116       C  0.47432826  0.91826313  0.46784010    -0.27300
F1117       F  0.40669638  0.92899959  0.46000558    -0.19400
H1118       H  0.42437679  0.91808442  0.41546131     0.16300
F1119       F  0.50627006  0.90786216  0.43859376    -0.23100
H1120       H  0.48852674  0.91842099  0.48225785     0.18100
C1121       C  0.54205656  0.98205242  0.63366435    -0.27200
C1122       C  0.53840867  0.95735427  0.62544879     0.06400
C1123       C  0.55907079  0.94068469  0.62430977     0.26000
C1124       C  0.58308932  0.94894758  0.63064901    -0.11700
C1125       C  0.58681528  0.97399903  0.63775233    -0.25600
C1126       C  0.56595977  0.99036532  0.63972593     0.36800
C1127       C  0.51347158  0.95040461  0.61579766     0.06400
F1128       F  0.55609008  0.91661487  0.61665002    -0.19400
H1129       H  0.59890214  0.93606479  0.62902624     0.16300
F1130       F  0.56868777  0.01460429  0.64702662    -0.23100
H1131       H  0.52648250  0.99531271  0.63436051     0.18100
C1132       C  0.49152980  0.95619041  0.62943765     0.26000
C1133       C  0.46819736  0.95531893  0.61782787    -0.11600
C1134       C  0.46613726  0.94910871  0.59214989    -0.25700
C1135       C  0.48795324  0.93915554  0.58005738     0.37000
C1136       C  0.51136304  0.94072815  0.59153129    -0.27300
F1137       F  0.49277878  0.96385155  0.65363852    -0.19400
H1138       H  0.45175457  0.96133142  0.62842329     0.16300
F1139       F  0.48719761  0.92752866  0.55751355    -0.23100
H1140       H  0.52801118  0.93519514  0.58099726     0.18100
C1141       C  0.43973051  0.02618086  0.58204750    -0.27200
C1142       C  0.41636006  0.03171632  0.57162102     0.06400
C1143       C  0.40009032  0.01194554  0.56619068     0.26000
C1144       C  0.40759037  0.98703064  0.57021466    -0.11700
C1145       C  0.43140562  0.98086953  0.58021297    -0.25600
C1146       C  0.44749177  0.00138120  0.58599852     0.36800
C1147       C  0.41052727  0.05779979  0.56366969     0.06400
F1148       F  0.37711872  0.01672186  0.55634376    -0.19400
H1149       H  0.39494377  0.97222870  0.56478396     0.16300
F1150       F  0.47183227  0.99828742  0.59265382    -0.23100
H1151       H  0.45288345  0.04115535  0.58554110     0.18100
C1152       C  0.41243048  0.07813634  0.58033729     0.26000
C1153       C  0.40853385  0.10277206  0.57187659    -0.11600
C1154       C  0.40313056  0.10757192  0.54659674    -0.25700
C1155       C  0.40120109  0.08711781  0.52997918     0.37000
C1156       C  0.40478263  0.06257125  0.53852353    -0.27300
F1157       F  0.41817291  0.07417794  0.60474306    -0.19400
H1158       H  0.41031716  0.11813941  0.58499943     0.16300
F1159       F  0.39637263  0.09073904  0.50531105    -0.23100
H1160       H  0.40381510  0.04723252  0.52524987     0.18100
C1161       C  0.38899772  0.92417606  0.62431137    -0.27200
C1162       C  0.39632210  0.89869096  0.62465554     0.06400
C1163       C  0.41738606  0.89143901  0.61014132     0.26000
C1164       C  0.42987638  0.90889168  0.59522702    -0.11700
C1165       C  0.42292535  0.93459856  0.59492746    -0.25600
C1166       C  0.40268666  0.94207568  0.61080821     0.36800
C1167       C  0.38243053  0.88005275  0.64051584     0.06400
F1168       F  0.42689496  0.86772569  0.61108269    -0.19400
H1169       H  0.44588990  0.90238573  0.58425993     0.16300
F1170       F  0.39674513  0.96651436  0.61500378    -0.23100
H1171       H  0.37279976  0.93061510  0.63497491     0.18100
C1172       C  0.37213715  0.88676410  0.66398450     0.26000
C1173       C  0.35826918  0.86950430  0.67792276    -0.11600
C1174       C  0.35521170  0.84436801  0.66999262    -0.25700
C1175       C  0.36769295  0.83715176  0.64749125     0.37000
C1176       C  0.37972727  0.85505356  0.63252205    -0.27300
F1177       F  0.37592474  0.90979877  0.67404258    -0.19400
H1178       H  0.34986094  0.87588025  0.69537003     0.16300
F1179       F  0.36927952  0.81298311  0.63975048    -0.23100
H1180       H  0.38711825  0.84900779  0.61455392     0.18100
C1181       C  0.70208534  0.31258995  0.76494419    -0.27200
C1182       C  0.68488851  0.32936873  0.75416978     0.06400
C1183       C  0.67306650  0.34740553  0.76958249     0.26000
C1184       C  0.67763247  0.34791396  0.79537142    -0.11700
C1185       C  0.69363646  0.32997612  0.80680068    -0.25600
C1186       C  0.70689380  0.31320144  0.79057222     0.36800
C1187       C  0.67882830  0.32732334  0.72709815     0.06400
F1188       F  0.65746096  0.36498407  0.75960777    -0.19400
H1189       H  0.66889033  0.36290186  0.80602016     0.16300
F1190       F  0.72416916  0.29668852  0.79955953    -0.23100
H1191       H  0.71156352  0.29850285  0.75356600     0.18100
C1192       C  0.69788695  0.32390637  0.70888544     0.26000
C1193       C  0.69168212  0.31959565  0.68387109    -0.11600
C1194       C  0.66644870  0.31881229  0.67642841    -0.25700
C1195       C  0.64742194  0.32309243  0.69441307     0.37000
C1196       C  0.65360880  0.32719287  0.71948169    -0.27300
F1197       F  0.72251463  0.32444308  0.71526176    -0.19400
H1198       H  0.70667001  0.31624732  0.67036754     0.16300
F1199       F  0.62282237  0.32160823  0.68815914    -0.23100
H1200       H  0.63857160  0.32920908  0.73316593     0.18100
C1201       C  0.80761908  0.36782899  0.79352785    -0.27200
C1202       C  0.80354314  0.36043417  0.81844659     0.06400
C1203       C  0.82432299  0.35723943  0.83426378     0.26000
C1204       C  0.84873345  0.36124202  0.82514743    -0.11700
C1205       C  0.85282852  0.36807454  0.80003679    -0.25600
C1206       C  0.83194270  0.37152310  0.78432026     0.36800
C1207       C  0.77774913  0.35413998  0.82690808     0.06400
F1208       F  0.82100030  0.35016018  0.85847675    -0.19400
H1209       H  0.86447247  0.35847147  0.83759358     0.16300
F1210       F  0.83493554  0.37826722  0.75995502    -0.23100
H1211       H  0.79192345  0.36999023  0.78090220     0.18100
C1212       C  0.75755539  0.37066604  0.82277542     0.26000
C1213       C  0.73291966  0.36283676  0.82698036    -0.11600
C1214       C  0.72741735  0.33839973  0.83586264    -0.25700
C1215       C  0.74825461  0.32214824  0.84063740     0.37000
C1216       C  0.77286881  0.33018648  0.83642329    -0.27300
F1217       F  0.76160071  0.39419429  0.81392279    -0.19400
H1218       H  0.71779716  0.37575499  0.82239758     0.16300
F1219       F  0.74554058  0.29762542  0.84665594    -0.23100
H1220       H  0.78819598  0.31691634  0.83900809     0.18100
C1221       C  0.68794688  0.20851526  0.87653390    -0.27200
C1222       C  0.70533340  0.22808349  0.87381601     0.06400
C1223       C  0.73106975  0.22257542  0.87596085     0.26000
C1224       C  0.73928921  0.19801105  0.88022358    -0.11700
C1225       C  0.72213224  0.17822867  0.88258055    -0.25600
C1226       C  0.69622429  0.18375491  0.88113382     0.36800
C1227       C  0.69736294  0.25393833  0.86681035     0.06400
F1228       F  0.74842268  0.24083286  0.87270843    -0.19400
H1229       H  0.75932730  0.19442501  0.88123421     0.16300
F1230       F  0.67900919  0.16524579  0.88334176    -0.23100
H1231       H  0.66802158  0.21239572  0.87479729     0.18100
C1232       C  0.68660759  0.25864924  0.84339772     0.26000
C1233       C  0.68480463  0.28324263  0.83426273    -0.11600
C1234       C  0.69519680  0.30364758  0.84755259    -0.25700
C1235       C  0.70228812  0.29901674  0.87267511     0.37000
C1236       C  0.70386522  0.27439812  0.88188212    -0.27300
F1237       F  0.67972143  0.23932766  0.82845656    -0.19400
H1238       H  0.67635273  0.28578848  0.81612351     0.16300
F1239       F  0.71048939  0.31792531  0.88740901    -0.23100
H1240       H  0.71165823  0.27117415  0.90028732     0.18100
C1241       C  0.58813797  0.52790111  0.93364699    -0.27200
C1242       C  0.61157541  0.53241977  0.94428731     0.06400
C1243       C  0.62771037  0.51194725  0.94880104     0.26000
C1244       C  0.62000857  0.48743577  0.94367788    -0.11700
C1245       C  0.59584269  0.48228684  0.93411988    -0.25600
C1246       C  0.58008492  0.50345639  0.92886204     0.36800
C1247       C  0.61772920  0.55815887  0.95300301     0.06400
F1248       F  0.65067664  0.51556078  0.95896332    -0.19400
H1249       H  0.63253709  0.47208974  0.94859088     0.16300
F1250       F  0.55577559  0.50126368  0.92202799    -0.23100
H1251       H  0.57511930  0.54336902  0.93066806     0.18100
C1252       C  0.61512702  0.57914896  0.93715932     0.26000
C1253       C  0.61911615  0.60344849  0.94631892    -0.11600
C1254       C  0.62537165  0.60731149  0.97151179    -0.25700
C1255       C  0.62822684  0.58624139  0.98728388     0.37000
C1256       C  0.62449425  0.56201207  0.97804869    -0.27300
F1257       F  0.60867645  0.57615382  0.91282553    -0.19400
H1258       H  0.61681573  0.61929395  0.93380438     0.16300
F1259       F  0.63442912  0.58895772  0.01174065    -0.23100
H1260       H  0.62617987  0.54622069  0.99073687     0.18100
C1261       C  0.52991363  0.45661587  0.88995336    -0.27200
C1262       C  0.50964180  0.45047316  0.90575504     0.06400
C1263       C  0.51471897  0.44247905  0.93023899     0.26000
C1264       C  0.53927623  0.44224781  0.93917383    -0.11700
C1265       C  0.55956427  0.45134266  0.92450189    -0.25600
C1266       C  0.55456000  0.45681041  0.89902355     0.36800
C1267       C  0.48324018  0.45527098  0.89799005     0.06400
F1268       F  0.49574063  0.43639346  0.94622619    -0.19400
H1269       H  0.54184346  0.43530626  0.95795994     0.16300
F1270       F  0.57327533  0.46431304  0.88337583    -0.23100
H1271       H  0.52653427  0.46230286  0.87079252     0.18100
C1272       C  0.47616841  0.47919066  0.88923504     0.26000
C1273       C  0.45080718  0.48563389  0.88694384    -0.11600
C1274       C  0.43190801  0.46839384  0.89304700    -0.25700
C1275       C  0.43888880  0.44380364  0.89984848     0.37000
C1276       C  0.46439179  0.43737717  0.90240602    -0.27300
F1277       F  0.49366064  0.49706780  0.88480471    -0.19400
H1278       H  0.44591758  0.50459724  0.88132153     0.16300
F1279       F  0.42117176  0.42655502  0.90567732    -0.23100
H1280       H  0.46940502  0.41872809  0.90887425     0.18100
C1281       C  0.57135240  0.45625615  0.00601099    -0.27200
C1282       C  0.58397653  0.43506390  0.01515652     0.06400
C1283       C  0.60039636  0.42178472  0.99919489     0.26000
C1284       C  0.60256164  0.42861137  0.97390142    -0.11700
C1285       C  0.58737167  0.44804188  0.96367982    -0.25600
C1286       C  0.57300077  0.46279411  0.98085090     0.36800
C1287       C  0.57697231  0.42563210  0.04027961     0.06400
F1288       F  0.61321604  0.40136831  0.00764543    -0.19400
H1289       H  0.61576272  0.41803953  0.96252006     0.16300
F1290       F  0.55888072  0.48259281  0.97304744    -0.23100
H1291       H  0.55900985  0.46709587  0.01823681     0.18100
C1292       C  0.59451567  0.42235820  0.05957499     0.26000
C1293       C  0.58621339  0.41644831  0.08391475    -0.11600
C1294       C  0.56041303  0.41366016  0.08911348    -0.25700
C1295       C  0.54321177  0.41551828  0.06928826     0.37000
C1296       C  0.55147832  0.42147039  0.04528449    -0.27300
F1297       F  0.61935401  0.42613778  0.05521669    -0.19400
H1298       H  0.59981210  0.41495322  0.09881564     0.16300
F1299       F  0.51816823  0.41242418  0.07309725    -0.23100
H1300       H  0.53774127  0.42351010  0.03054216     0.18100
C1301       C  0.61276713  0.39298127  0.90506702    -0.27200
C1302       C  0.63337709  0.40121851  0.89088726     0.06400
C1303       C  0.63809168  0.42714207  0.88980060     0.26000
C1304       C  0.62323643  0.44422887  0.90356279    -0.11700
C1305       C  0.60336361  0.43602590  0.91924233    -0.25600
C1306       C  0.59783789  0.40998589  0.91877895     0.36800
C1307       C  0.64998654  0.38272383  0.87753074     0.06400
F1308       F  0.65677880  0.43608768  0.87490352    -0.19400
H1309       H  0.62731041  0.46392086  0.90134155     0.16300
F1310       F  0.57828205  0.40075347  0.93230736    -0.23100
H1311       H  0.60847395  0.37316446  0.90596070     0.18100
C1312       C  0.67613485  0.38315234  0.88065066     0.26000
C1313       C  0.69178502  0.36633212  0.86757450    -0.11600
C1314       C  0.68199785  0.34844442  0.85071987    -0.25700
C1315       C  0.65546004  0.34668487  0.84957772     0.37000
C1316       C  0.63981483  0.36392636  0.86233052    -0.27300
F1317       F  0.68659362  0.39934082  0.89709293    -0.19400
H1318       H  0.71166419  0.36717991  0.87135640     0.16300
F1319       F  0.64458822  0.32876970  0.83534503    -0.23100
H1320       H  0.61965012  0.36270334  0.86014558     0.18100
C1321       C  0.81977418  0.75675076  0.39047552    -0.27200
C1322       C  0.82750949  0.77719493  0.37578943     0.06400
C1323       C  0.83988569  0.77236541  0.35298010     0.26000
C1324       C  0.84183747  0.74784720  0.34380900    -0.11700
C1325       C  0.83029638  0.72753159  0.35646536    -0.25600
C1326       C  0.82174846  0.73213701  0.38128650     0.36800
C1327       C  0.81974264  0.80325483  0.38253447     0.06400
F1328       F  0.84838002  0.79152182  0.33853521    -0.19400
H1329       H  0.85166783  0.74530477  0.32619850     0.16300
F1330       F  0.81279973  0.71314291  0.39566769    -0.23100
H1331       H  0.81096509  0.75997785  0.40857810     0.18100
C1332       C  0.79410598  0.80894176  0.38594829     0.26000
C1333       C  0.78607164  0.83375407  0.38920837    -0.11600
C1334       C  0.80330099  0.85360263  0.38930305    -0.25700
C1335       C  0.82909725  0.84794109  0.38669822     0.37000
C1336       C  0.83718727  0.82294459  0.38317189    -0.27300
F1337       F  0.77659574  0.79062272  0.38471629    -0.19400
H1338       H  0.76609712  0.83747261  0.39116988     0.16300
F1339       F  0.84634476  0.86652583  0.38653121    -0.23100
H1340       H  0.85703117  0.81898179  0.38046925     0.18100
C1341       C  0.85930544  0.68804492  0.27903888    -0.27200
C1342       C  0.84734185  0.70610046  0.26412017     0.06400
C1343       C  0.82847659  0.72130257  0.27479038     0.26000
C1344       C  0.82208653  0.71877397  0.30000900    -0.11700
C1345       C  0.83484593  0.70166834  0.31587218    -0.25600
C1346       C  0.85287355  0.68531453  0.30441261     0.36800
C1347       C  0.85348888  0.70820771  0.23710580     0.06400
F1348       F  0.81649232  0.73902569  0.26090741    -0.19400
H1349       H  0.80743992  0.73095051  0.30753573     0.16300
F1350       F  0.86334437  0.66564332  0.31673129    -0.23100
H1351       H  0.87315130  0.67542174  0.27076251     0.18100
C1352       C  0.87803548  0.71346276  0.22879989     0.26000
C1353       C  0.88307010  0.71673403  0.20319622    -0.11600
C1354       C  0.86364798  0.71517119  0.18562188    -0.25700
C1355       C  0.83923860  0.70939076  0.19397937     0.37000
C1356       C  0.83431205  0.70581227  0.21944947    -0.27300
F1357       F  0.89677715  0.71678521  0.24551510    -0.19400
H1358       H  0.90188279  0.72172608  0.19723914     0.16300
F1359       F  0.82001403  0.70758033  0.17757151    -0.23100
H1360       H  0.81533591  0.70155459  0.22549526     0.18100
C1361       C  0.76601005  0.66457743  0.32859793    -0.27200
C1362       C  0.74698347  0.68179909  0.33504632     0.06400
C1363       C  0.75352594  0.70464089  0.34600782     0.26000
C1364       C  0.77870864  0.71061867  0.34963598    -0.11700
C1365       C  0.79842595  0.69364023  0.34316170    -0.25600
C1366       C  0.79134580  0.67040515  0.33231191     0.36800
C1367       C  0.72065222  0.67739775  0.32761626     0.06400
F1368       F  0.73544861  0.72173086  0.35232751    -0.19400
H1369       H  0.78222983  0.72934612  0.35624155     0.16300
F1370       F  0.80905791  0.65362050  0.32436540    -0.23100
H1371       H  0.76129015  0.64703060  0.31961891     0.18100
C1372       C  0.70968035  0.69259143  0.30913920     0.26000
C1373       C  0.68492202  0.68866495  0.30180476    -0.11600
C1374       C  0.67047367  0.66955306  0.31276026    -0.25700
C1375       C  0.68135854  0.65451925  0.33158826     0.37000
C1376       C  0.70636082  0.65833798  0.33877934    -0.27300
F1377       F  0.72319106  0.71089563  0.29773620    -0.19400
H1378       H  0.67714208  0.70048707  0.28723896     0.16300
F1379       F  0.66808686  0.63588696  0.34269364    -0.23100
H1380       H  0.71455684  0.64651478  0.35311552     0.18100
C1381       C  0.95144209  0.62512353  0.51114457    -0.27200
C1382       C  0.94612865  0.60792970  0.53029590     0.06400
C1383       C  0.93806321  0.58383622  0.52390885     0.26000
C1384       C  0.93577461  0.57696854  0.49875602    -0.11700
C1385       C  0.94073245  0.59420617  0.47909383    -0.25600
C1386       C  0.94918147  0.61836846  0.48599411     0.36800
C1387       C  0.95199869  0.61429127  0.55659449     0.06400
F1388       F  0.93392992  0.56636589  0.54197126    -0.19400
H1389       H  0.93126855  0.55762728  0.49512563     0.16300
F1390       F  0.95513765  0.63563551  0.46826420    -0.23100
H1391       H  0.95795926  0.64375970  0.51571240     0.18100
C1392       C  0.97634329  0.62197033  0.56258985     0.26000
C1393       C  0.98251776  0.62729480  0.58727594    -0.11600
C1394       C  0.96467106  0.62498656  0.60669924    -0.25700
C1395       C  0.94017767  0.61733922  0.60080174     0.37000
C1396       C  0.93394331  0.61199026  0.57586502    -0.27300
F1397       F  0.99451331  0.62340537  0.54463288    -0.19400
H1398       H  0.00160421  0.63284663  0.59120314     0.16300
F1399       F  0.92248054  0.61460305  0.61904274    -0.23100
H1400       H  0.91508078  0.60598882  0.57157549     0.18100
C1401       C  0.90168426  0.46569387  0.43243924    -0.27200
C1402       C  0.90857652  0.48312348  0.45082746     0.06400
C1403       C  0.91271868  0.47499070  0.47539408     0.26000
C1404       C  0.91002750  0.44983947  0.48155941    -0.11700
C1405       C  0.90295452  0.43221824  0.46345043    -0.25600
C1406       C  0.89860396  0.44029152  0.43875254     0.36800
C1407       C  0.91303260  0.50966848  0.44481503     0.06400
F1408       F  0.92004758  0.49136770  0.49333582    -0.19400
H1409       H  0.91345277  0.44415741  0.50072358     0.16300
F1410       F  0.89210299  0.42367523  0.42073381    -0.23100
H1411       H  0.89877172  0.47177259  0.41331807     0.18100
C1412       C  0.93507851  0.51656182  0.43228440     0.26000
C1413       C  0.94285238  0.54149067  0.43267472    -0.11600
C1414       C  0.92941249  0.55997123  0.44665610    -0.25700
C1415       C  0.90535014  0.55329723  0.45593188     0.37000
C1416       C  0.89766795  0.52829498  0.45560982    -0.27300
F1417       F  0.95004303  0.49889574  0.42122646    -0.19400
H1418       H  0.95987958  0.54580003  0.42247103     0.16300
F1419       F  0.89020278  0.57053424  0.46737004    -0.23100
H1420       H  0.88033420  0.52321546  0.46503879     0.18100
C1421       C  0.01036096  0.57118669  0.44273850    -0.27200
C1422       C  0.01754200  0.58611641  0.42243085     0.06400
C1423       C  0.00044536  0.60379065  0.41292052     0.26000
C1424       C  0.97590340  0.60534903  0.42271982    -0.11700
C1425       C  0.96759638  0.58861687  0.44165683    -0.25600
C1426       C  0.98603211  0.57268507  0.45260493     0.36800
C1427       C  0.04260428  0.58185833  0.41093923     0.06400
F1428       F  0.00723819  0.61901323  0.39368581    -0.19400
H1429       H  0.96359500  0.61956670  0.41505923     0.16300
F1430       F  0.98004602  0.55708381  0.47180757    -0.23100
H1431       H  0.02355504  0.55778246  0.45060999     0.18100
C1432       C  0.06307443  0.59706566  0.41706351     0.26000
C1433       C  0.08764093  0.58959419  0.41040489    -0.11600
C1434       C  0.09194782  0.56672105  0.39789727    -0.25700
C1435       C  0.07120540  0.55254465  0.39020683     0.37000
C1436       C  0.04679459  0.56006998  0.39673932    -0.27300
F1437       F  0.05943706  0.61805991  0.43107953    -0.19400
H1438       H  0.10333274  0.60070523  0.41661230     0.16300
F1439       F  0.07462234  0.53075203  0.37735380    -0.23100
H1440       H  0.03118599  0.54817656  0.39184782     0.18100
C1441       C  0.88881594  0.63671460  0.43142194    -0.27200
C1442       C  0.88914265  0.63395665  0.40540354     0.06400
C1443       C  0.90443142  0.61536377  0.39450024     0.26000
C1444       C  0.92006057  0.60051264  0.40944203    -0.11700
C1445       C  0.92148210  0.60417106  0.43566035    -0.25600
C1446       C  0.90426472  0.62180686  0.44653467     0.36800
C1447       C  0.87325399  0.65043781  0.38979613     0.06400
F1448       F  0.90403886  0.61139543  0.36940149    -0.19400
H1449       H  0.93159453  0.58623364  0.40039981     0.16300
F1450       F  0.90080980  0.62401388  0.47162116    -0.23100
H1451       H  0.87626667  0.65036508  0.44011900     0.18100
C1452       C  0.84730362  0.64675362  0.38847736     0.26000
C1453       C  0.83229815  0.66284749  0.37411245    -0.11600
C1454       C  0.84290013  0.68278122  0.36009661    -0.25700
C1455       C  0.86910342  0.68673076  0.36252244     0.37000
C1456       C  0.88399979  0.67054958  0.37688573    -0.27300
F1457       F  0.83645841  0.62754185  0.40116471    -0.19400
H1458       H  0.81231448  0.65965245  0.37460198     0.16300
F1459       F  0.88049240  0.70598927  0.35042457    -0.23100
H1460       H  0.90400796  0.67384301  0.37811267     0.18100
C1461       C  0.02854992  0.07565235  0.12091056    -0.27200
C1462       C  0.01002484  0.06590377  0.10518421     0.06400
C1463       C  0.01708220  0.05803485  0.08106173     0.26000
C1464       C  0.04194328  0.06022808  0.07278403    -0.11700
C1465       C  0.06057508  0.07169530  0.08759836    -0.25600
C1466       C  0.05352655  0.07833399  0.11250845     0.36800
C1467       C  0.98375137  0.06217152  0.11429646     0.06400
F1468       F  0.00000345  0.04756511  0.06560542    -0.19400
H1469       H  0.04658240  0.05363045  0.05410382     0.16300
F1470       F  0.07060179  0.08603755  0.12945479    -0.23100
H1471       H  0.02369045  0.08099369  0.13993557     0.18100
C1472       C  0.97881704  0.04672334  0.13509623     0.26000
C1473       C  0.95404222  0.04045613  0.14151761    -0.11600
C1474       C  0.93366105  0.05005926  0.12783682    -0.25700
C1475       C  0.93849323  0.06648032  0.10775474     0.37000
C1476       C  0.96332661  0.07224354  0.10092987    -0.27300
F1477       F  0.99802345  0.03662347  0.14841184    -0.19400
H1478       H  0.95076704  0.02778583  0.15705416     0.16300
F1479       F  0.91931852  0.07571013  0.09378826    -0.23100
H1480       H  0.96667458  0.08415929  0.08482016     0.18100
C1481       C  0.10511908  0.00504913  0.09181729    -0.27200
C1482       C  0.10702013  0.99381800  0.06810670     0.06400
C1483       C  0.10433969  0.00903955  0.04684744     0.26000
C1484       C  0.09819864  0.03443443  0.04917317    -0.11700
C1485       C  0.09640177  0.04638928  0.07283013    -0.25600
C1486       C  0.09988510  0.03088103  0.09422842     0.36800
C1487       C  0.10903641  0.96605634  0.06508432     0.06400
F1488       F  0.10686798  0.99911213  0.02351544    -0.19400
H1489       H  0.09363626  0.04396344  0.03199857     0.16300
F1490       F  0.09718816  0.04051150  0.11763229    -0.23100
H1491       H  0.10667701  0.99363826  0.10853251     0.18100
C1492       C  0.12801483  0.95160611  0.07657390     0.26000
C1493       C  0.13053383  0.92584161  0.07115648    -0.11600
C1494       C  0.11421388  0.91417247  0.05422612    -0.25700
C1495       C  0.09463224  0.92853283  0.04369938     0.37000
C1496       C  0.09203931  0.95399240  0.04927077    -0.27300
F1497       F  0.14482248  0.96256824  0.09197204    -0.19400
H1498       H  0.14580550  0.91525097  0.07947105     0.16300
F1499       F  0.07828548  0.91823418  0.02736151    -0.23100
H1500       H  0.07690255  0.96454318  0.04065680     0.18100
C1501       C  0.06312785  0.10910386  0.01642225    -0.27200
C1502       C  0.08270345  0.10418977  0.99929789     0.06400
C1503       C  0.10558805  0.09475709  0.00856276     0.26000
C1504       C  0.10765197  0.08794533  0.03388032    -0.11700
C1505       C  0.08641523  0.08843153  0.05007382    -0.25600
C1506       C  0.06506677  0.10205652  0.04152468     0.36800
C1507       C  0.07847791  0.10862315  0.97204295     0.06400
F1508       F  0.12576483  0.09159748  0.99310372    -0.19400
H1509       H  0.12521945  0.07983671  0.04023404     0.16300
F1510       F  0.04596473  0.10902340  0.05711354    -0.23100
H1511       H  0.04576294  0.11775370  0.01021383     0.18100
C1512       C  0.08390244  0.08988113  0.95406696     0.26000
C1513       C  0.07675773  0.09315933  0.92902121    -0.11600
C1514       C  0.06410762  0.11511813  0.92137174    -0.25700
C1515       C  0.05911044  0.13399248  0.93925888     0.37000
C1516       C  0.06630970  0.13076076  0.96418325    -0.27300
F1517       F  0.09475476  0.06778193  0.96091476    -0.19400
H1518       H  0.08056878  0.07821446  0.91571911     0.16300
F1519       F  0.04612531  0.15511814  0.93302158    -0.23100
H1520       H  0.06176386  0.14542528  0.97757969     0.18100
C1521       C  0.25851785  0.14143101  0.19385941    -0.27200
C1522       C  0.27804568  0.15643574  0.18466371     0.06400
C1523       C  0.27204800  0.17812979  0.17106940     0.26000
C1524       C  0.24712064  0.18630298  0.16947000    -0.11700
C1525       C  0.22759631  0.17352200  0.18221072    -0.25600
C1526       C  0.23344320  0.14939609  0.19188491     0.36800
C1527       C  0.30425069  0.15192889  0.19264485     0.06400
F1528       F  0.29046446  0.19257532  0.16106453    -0.19400
H1529       H  0.24356219  0.20331320  0.15900612     0.16300
F1530       F  0.21529284  0.13491167  0.20226700    -0.23100
H1531       H  0.26279943  0.12423551  0.20385793     0.18100
C1532       C  0.31000017  0.15351814  0.21818582     0.26000
C1533       C  0.33493872  0.15333721  0.22587723    -0.11600
C1534       C  0.35476596  0.15144475  0.20836129    -0.25700
C1535       C  0.34903848  0.14863749  0.18282916     0.37000
C1536       C  0.32390393  0.14916191  0.17504912    -0.27300
F1537       F  0.29151775  0.15679713  0.23563424    -0.19400
H1538       H  0.33870933  0.15526871  0.24568198     0.16300
F1539       F  0.36760069  0.14619862  0.16537521    -0.23100
H1540       H  0.31975968  0.14799043  0.15526517     0.18100
C1541       C  0.15396955  0.22558430  0.29195985    -0.27200
C1542       C  0.16406923  0.20147635  0.28805675     0.06400
C1543       C  0.16781225  0.18562683  0.30884758     0.26000
C1544       C  0.16180756  0.19404034  0.33308363    -0.11700
C1545       C  0.15235785  0.21846617  0.33696834    -0.25600
C1546       C  0.14816865  0.23405506  0.31604068     0.36800
C1547       C  0.17244962  0.19413458  0.26247902     0.06400
F1548       F  0.17755596  0.16216935  0.30575383    -0.19400
H1549       H  0.16529027  0.18174100  0.34885663     0.16300
F1550       F  0.13910354  0.25783328  0.31876677    -0.23100
H1551       H  0.15142438  0.23832194  0.27634591     0.18100
C1552       C  0.15696698  0.19814704  0.24170382     0.26000
C1553       C  0.16635726  0.19452265  0.21743170    -0.11600
C1554       C  0.19126477  0.18598440  0.21289705    -0.25700
C1555       C  0.20677925  0.18231138  0.23426342     0.37000
C1556       C  0.19722011  0.18598807  0.25846538    -0.27300
F1557       F  0.13278950  0.20598592  0.24485206    -0.19400
H1558       H  0.15406683  0.19852093  0.20184160     0.16300
F1559       F  0.23185200  0.17795620  0.23247137    -0.23100
H1560       H  0.20982846  0.18398504  0.27417457     0.18100
C1561       C  0.23217180  0.29800173  0.14852594    -0.27200
C1562       C  0.20754193  0.29111004  0.15477936     0.06400
C1563       C  0.18862110  0.30978626  0.15539924     0.26000
C1564       C  0.19474649  0.33513027  0.15129725    -0.11700
C1565       C  0.21977174  0.34209936  0.14647586    -0.25600
C1566       C  0.23826062  0.32305258  0.14426378     0.36800
C1567       C  0.20300937  0.26492227  0.16323397     0.06400
F1568       F  0.16459310  0.30374579  0.16136528    -0.19400
H1569       H  0.18013541  0.34936049  0.15287095     0.16300
F1570       F  0.26248752  0.32859428  0.13849412    -0.23100
H1571       H  0.24697364  0.28389056  0.14763885     0.18100
C1572       C  0.18617129  0.24882771  0.15124499     0.26000
C1573       C  0.18456815  0.22341693  0.15839786    -0.11600
C1574       C  0.20032272  0.21326495  0.17720443    -0.25700
C1575       C  0.21587727  0.23042769  0.19012322     0.37000
C1576       C  0.21724728  0.25553346  0.18305445    -0.27300
F1577       F  0.17193870  0.25741786  0.13205135    -0.19400
H1578       H  0.17097412  0.21195423  0.14898710     0.16300
F1579       F  0.23092926  0.22274844  0.20904013    -0.23100
H1580       H  0.23003697  0.26771106  0.19287698     0.18100
C1581       C  0.11609173  0.12972816  0.11302412    -0.27200
C1582       C  0.13999052  0.12067619  0.11925789     0.06400
C1583       C  0.14751976  0.09684761  0.11064845     0.26000
C1584       C  0.13082149  0.08187064  0.09708551    -0.11700
C1585       C  0.10604309  0.09024116  0.09173206    -0.25600
C1586       C  0.09963800  0.11515820  0.09892680     0.36800
C1587       C  0.15620852  0.13586031  0.13581244     0.06400
F1588       F  0.17101393  0.08801795  0.11541485    -0.19400
H1589       H  0.13773893  0.06390144  0.09044682     0.16300
F1590       F  0.07696958  0.12528599  0.09308947    -0.23100
H1591       H  0.11009693  0.14823607  0.11919692     0.18100
C1592       C  0.17490968  0.15155801  0.12611534     0.26000
C1593       C  0.18870978  0.16700998  0.14214331    -0.11600
C1594       C  0.18401488  0.16772959  0.16831786    -0.25700
C1595       C  0.16619871  0.15025441  0.17787310     0.37000
C1596       C  0.15226243  0.13517967  0.16172015    -0.27300
F1597       F  0.17968119  0.15212307  0.10111287    -0.19400
H1598       H  0.20310533  0.17879383  0.13401051     0.16300
F1599       F  0.16295790  0.14611224  0.20273586    -0.23100
H1600       H  0.13845842  0.12251775  0.16957053     0.18100
loop_ 
_geom_bond_atom_site_label_1 
_geom_bond_atom_site_label_2 
_geom_bond_distance 
_geom_bond_site_symmetry_2 
_ccdc_geom_bond_type 
C1         C1525   1.557       .  S
C1         C1554   1.562       .  S
C1         C1574   1.568       .  S
C1         C1594   1.568       .  S
C2         C1465   1.566       .  S
C2         C1485   1.569       .  S
C2         C1505   1.567       .  S
C2         C1585   1.561       .  S
C3         C1385   1.559       .  S
C3         C1414   1.559       .  S
C3         C1425   1.564       .  S
C3         C1445   1.559       .  S
C4         C1325   1.567       .  S
C4         C1345   1.561       .  S
C4         C1365   1.567       .  S
C4         C1454   1.556       .  S
C5         C1245   1.568       .  S
C5         C1265   1.562       .  S
C5         C1285   1.563       .  S
C5         C1305   1.563       .  S
C6         C1185   1.564       .  S
C6         C1214   1.563       .  S
C6         C1234   1.562       .  S
C6         C1314   1.565       .  S
C7         C1105   1.561       .  S
C7         C1134   1.555       .  S
C7         C1145   1.564       .  S
C7         C1165   1.559       .  S
C8         C1045   1.563       .  S
C8         C1074   1.561       .  S
C8         C1094   1.570       .  S
C8         C1174   1.559       .  S
In9          O11   2.247       .  S
In9          O12   2.236       .  S
In9          O20   2.294       .  S
In9          O14   2.238       .  S
In9          O16   2.269       .  S
In9          O17   2.201       .  S
In9          O18   2.254       .  S
In9          O21   2.275       .  S
C10          O16   1.263       .  A
C10          O18   1.258       .  A
C10         C994   1.488       .  S
O11          C19   1.261       .  A
O12          C19   1.259       .  A
C13          O20   1.265       .  A
C13          O14   1.256       .  A
C13        C1014   1.492       .  S
C15          O17   1.258       .  A
C15          O21   1.267       .  A
C15        C1294   1.479       .  S
C19        C1034   1.473       .  S
In22         O24   2.252       .  S
In22         O25   2.227       .  S
In22         O33   2.297       .  S
In22         O27   2.250       .  S
In22         O29   2.280       .  S
In22         O30   2.213       .  S
In22         O31   2.265       .  S
In22         O34   2.288       .  S
C23          O29   1.261       .  A
C23          O31   1.257       .  A
C23         C974   1.492       .  S
O24          C32   1.261       .  A
O25          C32   1.258       .  A
C26          O33   1.266       .  A
C26          O27   1.257       .  A
C26         C945   1.496       .  S
C28          O30   1.259       .  A
C28          O34   1.268       .  A
C28        C1565   1.487       .  S
C32        C1025   1.474       .  S
In35         O37   2.226       .  S
In35         O38   2.219       .  S
In35         O46   2.287       .  S
In35         O40   2.233       .  S
In35         O42   2.293       .  S
In35         O43   2.216       .  S
In35         O44   2.230       .  S
In35         O47   2.285       .  S
C36          O42   1.267       .  A
C36          O44   1.257       .  A
C36         C954   1.494       .  S
O37          C45   1.261       .  A
O38          C45   1.261       .  A
C39          O46   1.268       .  A
C39          O40   1.258       .  A
C39         C905   1.491       .  S
C41          O43   1.257       .  A
C41          O47   1.267       .  A
C41        C1434   1.479       .  S
C45         C934   1.466       .  S
In48         O50   2.216       .  S
In48         O51   2.240       .  S
In48         O59   2.227       .  S
In48         O53   2.301       .  S
In48         O55   2.283       .  S
In48         O56   2.211       .  S
In48         O57   2.252       .  S
In48         O60   2.274       .  S
C49          O55   1.261       .  A
C49          O57   1.256       .  A
C49         C894   1.488       .  S
O50          C58   1.262       .  A
O51          C58   1.261       .  A
C52          O59   1.254       .  A
C52          O53   1.267       .  A
C52         C865   1.488       .  S
C54          O56   1.257       .  A
C54          O60   1.266       .  A
C54        C1545   1.480       .  S
C58         C925   1.464       .  S
In61         O63   2.237       .  S
In61         O64   2.235       .  S
In61         O72   2.231       .  S
In61         O66   2.299       .  S
In61         O68   2.266       .  S
In61         O69   2.224       .  S
In61         O70   2.285       .  S
In61         O73   2.261       .  S
C62          O68   1.257       .  A
C62          O70   1.259       .  A
C62         C874   1.493       .  S
O63          C71   1.260       .  A
O64          C71   1.260       .  A
C65          O72   1.255       .  A
C65          O66   1.266       .  A
C65         C825   1.491       .  S
C67          O69   1.261       .  A
C67          O73   1.267       .  A
C67        C1154   1.483       .  S
C71         C845   1.473       .  S
In74         O76   2.228       .  S
In74         O77   2.249       .  S
In74         O85   2.287       .  S
In74         O79   2.230       .  S
In74         O81   2.279       .  S
In74         O82   2.206       .  S
In74         O83   2.235       .  S
In74         O86   2.273       .  S
C75          O81   1.263       .  A
C75          O83   1.256       .  A
C75         C805   1.482       .  S
O76          C84   1.258       .  A
O77          C84   1.259       .  A
C78          O85   1.265       .  A
C78          O79   1.256       .  A
C78         C985   1.489       .  S
C80          O82   1.260       .  A
C80          O86   1.268       .  A
C80        C1534   1.481       .  S
C84         C854   1.472       .  S
In87         O89   2.243       .  S
In87         O90   2.221       .  S
In87         O98   2.240       .  S
In87         O92   2.284       .  S
In87         O94   2.280       .  S
In87         O95   2.220       .  S
In87         O96   2.239       .  S
In87         O99   2.292       .  S
C88          O94   1.266       .  A
C88          O96   1.258       .  A
C88         C765   1.491       .  S
O89          C97   1.261       .  A
O90          C97   1.260       .  A
C91          O98   1.258       .  A
C91          O92   1.265       .  A
C91         C745   1.489       .  S
C93          O95   1.257       .  A
C93          O99   1.266       .  A
C93        C1225   1.487       .  S
C97         C794   1.472       .  S
In100       O102   2.220   1_455  S
In100       O103   2.250       .  S
In100       O111   2.225       .  S
In100       O105   2.287       .  S
In100       O107   2.297       .  S
In100       O108   2.272       .  S
In100       O109   2.228       .  S
In100       O112   2.249       .  S
C101        O107   1.266       .  A
C101        O109   1.255       .  A
C101        C734   1.490       .  S
O102        C110   1.260       .  A
O103        C110   1.261   1_455  A
C104        O111   1.255       .  A
C104        O105   1.266       .  A
C104        C705   1.486       .  S
C106        O108   1.261       .  A
C106        O112   1.259       .  A
C106       C1514   1.486       .  S
C110        C785   1.470       .  S
In113       O115   2.252       .  S
In113       O116   2.226       .  S
In113       O124   2.251       .  S
In113       O118   2.268       .  S
In113       O120   2.294       .  S
In113       O121   2.189       .  S
In113       O122   2.231       .  S
In113       O125   2.272       .  S
C114        O120   1.265       .  A
C114        O122   1.254       .  A
C114        C674   1.489       .  S
O115        C123   1.261       .  A
O116        C123   1.256       .  A
C117        O124   1.258       .  A
C117        O118   1.261       .  A
C117        C885   1.487       .  S
C119        O121   1.260       .  A
C119        O125   1.269       .  A
C119       C1405   1.474       .  S
C123        C685   1.472       .  S
In126       O128   2.250       .  S
In126       O129   2.222       .  S
In126       O137   2.235       .  S
In126       O131   2.296       .  S
In126       O133   2.278       .  S
In126       O134   2.227       .  S
In126       O135   2.245       .  S
In126       O138   2.267       .  S
C127        O133   1.265       .  A
C127        O135   1.257       .  A
C127        C645   1.489       .  S
O128        C136   1.263       .  A
O129        C136   1.260       .  A
C130        O137   1.256       .  A
C130        O131   1.266       .  A
C130        C725   1.491       .  S
C132        O134   1.258       .  A
C132        O138   1.264       .  A
C132       C1205   1.480       .  S
C136        C694   1.473       .  S
In139       O141   2.241       .  S
In139       O142   2.223       .  S
In139       O150   2.288       .  S
In139       O144   2.237       .  S
In139       O146   2.273       .  S
In139       O147   2.222       .  S
In139       O148   2.253       .  S
In139       O151   2.276       .  S
C140        O146   1.261       .  A
C140        O148   1.257       .  A
C140        C914   1.487       .  S
O141        C149   1.263       .  A
O142        C149   1.261       .  A
C143        O150   1.263       .  A
C143        O144   1.254       .  A
C143        C605   1.485       .  S
C145        O147   1.258       .  A
C145        O151   1.266       .  A
C145       C1085   1.482       .  S
C149        C634   1.470       .  S
In152       O154   2.248   1_655  S
In152       O155   2.228   1_655  S
In152       O163   2.208       .  S
In152       O157   2.302       .  S
In152       O159   2.260       .  S
In152       O160   2.201       .  S
In152       O161   2.266       .  S
In152       O164   2.273       .  S
C153        O159   1.259       .  A
C153        O161   1.258       .  A
C153        C585   1.487       .  S
O154        C162   1.261       .  A
O155        C162   1.258       .  A
C156        O163   1.255       .  A
C156        O157   1.267       .  A
C156        C654   1.487       .  S
C158        O160   1.260       .  A
C158        O164   1.268       .  A
C158       C1394   1.481       .  S
C162        C625   1.472       .  S
In165       O167   2.228       .  S
In165       O168   2.265       .  S
In165       O176   2.247       .  S
In165       O170   2.285       .  S
In165       O172   2.277       .  S
In165       O173   2.230       .  S
In165       O174   2.223       .  S
In165       O177   2.258       .  S
C166        O172   1.266       .  A
C166        O174   1.257       .  A
C166        C714   1.485       .  S
O167        C175   1.257       .  A
O168        C175   1.262       .  A
C169        O176   1.256       .  A
C169        O170   1.260       .  A
C169        C594   1.487       .  S
C171        O173   1.263       .  A
C171        O177   1.263       .  A
C171       C1065   1.476       .  S
C175        C565   1.478       .  S
In178       O180   2.239   1_554  S
In178       O181   2.235   1_554  S
In178       O189   2.237       .  S
In178       O183   2.289       .  S
In178       O185   2.273       .  S
In178       O186   2.223       .  S
In178       O187   2.237       .  S
In178       O190   2.272       .  S
C179        O185   1.265       .  A
C179        O187   1.257       .  A
C179        C545   1.484       .  S
O180        C188   1.261       .  A
O181        C188   1.262       .  A
C182        O189   1.255       .  A
C182        O183   1.264       .  A
C182        C525   1.488       .  S
C184        O186   1.260       .  A
C184        O190   1.265       .  A
C184       C1494   1.485       .  S
C188        C574   1.475       .  S
In191       O193   2.246       .  S
In191       O194   2.241       .  S
In191       O202   2.249       .  S
In191       O196   2.273       .  S
In191       O198   2.288       .  S
In191       O199   2.220       .  S
In191       O200   2.213       .  S
In191       O203   2.278       .  S
C192        O198   1.267       .  A
C192        O200   1.257       .  A
C192        C614   1.485       .  S
O193        C201   1.260       .  A
O194        C201   1.261       .  A
C195        O202   1.260       .  A
C195        O196   1.264       .  A
C195        C965   1.490       .  S
C197        O199   1.258       .  A
C197        O203   1.266       .  A
C197       C1274   1.481       .  S
C201        C505   1.477       .  S
In204       O206   2.252       .  S
In204       O207   2.224       .  S
In204       O215   2.234       .  S
In204       O209   2.281       .  S
In204       O211   2.288       .  S
In204       O212   2.223       .  S
In204       O213   2.235       .  S
In204       O216   2.272       .  S
C205        O211   1.266       .  A
C205        O213   1.258       .  A
C205        C485   1.491       .  S
O206        C214   1.262       .  A
O207        C214   1.259       .  A
C208        O215   1.258       .  A
C208        O209   1.266       .  A
C208        C554   1.490       .  S
C210        O212   1.257       .  A
C210        O216   1.264       .  A
C210       C1054   1.481       .  S
C214        C514   1.475       .  S
In217       O219   2.219       .  S
In217       O220   2.244       .  S
In217       O228   2.251       .  S
In217       O222   2.283       .  S
In217       O224   2.279       .  S
In217       O225   2.228       .  S
In217       O226   2.243       .  S
In217       O229   2.267       .  S
C218        O224   1.265       .  A
C218        O226   1.258       .  A
C218       C1005   1.490       .  S
O219        C227   1.259       .  A
O220        C227   1.262       .  A
C221        O228   1.253       .  A
C221        O222   1.261       .  A
C221        C445   1.485       .  S
C223        O225   1.262       .  A
C223        O229   1.266       .  A
C223       C1374   1.485       .  S
C227        C474   1.470       .  S
In230       O232   2.247       .  S
In230       O233   2.222       .  S
In230       O241   2.235       .  S
In230       O235   2.290   1_554  S
In230       O237   2.249   1_554  S
In230       O238   2.225       .  S
In230       O239   2.281       .  S
In230       O242   2.270   1_554  S
C231        O237   1.256   1_554  A
C231        O239   1.261       .  A
C231        C434   1.487       .  S
O232        C240   1.262       .  A
O233        C240   1.258       .  A
C234        O241   1.256   1_556  A
C234        O235   1.265       .  A
C234        C494   1.489       .  S
C236        O238   1.259   1_556  A
C236        O242   1.267       .  A
C236       C1254   1.484       .  S
C240        C465   1.470       .  S
In243       O245   2.239       .  S
In243       O246   2.244       .  S
In243       O254   2.229       .  S
In243       O248   2.292       .  S
In243       O250   2.291       .  S
In243       O251   2.231       .  S
In243       O252   2.242       .  S
In243       O255   2.263       .  S
C244        O250   1.265       .  A
C244        O252   1.257       .  A
C244        C834   1.492       .  S
O245        C253   1.261       .  A
O246        C253   1.259       .  A
C247        O254   1.258       .  A
C247        O248   1.266       .  A
C247        C665   1.491       .  S
C249        O251   1.258       .  A
C249        O255   1.264       .  A
C249       C1194   1.478       .  S
C253        C405   1.475       .  S
In256       O258   2.249       .  S
In256       O259   2.221       .  S
In256       O267   2.237       .  S
In256       O261   2.272   1_545  S
In256       O263   2.264   1_545  S
In256       O264   2.211       .  S
In256       O265   2.241       .  S
In256       O268   2.266   1_545  S
C257        O263   1.262   1_545  A
C257        O265   1.257       .  A
C257        C754   1.484       .  S
O258        C266   1.262       .  A
O259        C266   1.259       .  A
C260        O267   1.258   1_565  A
C260        O261   1.264       .  A
C260        C385   1.485       .  S
C262        O264   1.257   1_565  A
C262        O268   1.265       .  A
C262       C1125   1.474       .  S
C266        C414   1.473       .  S
In269       O271   2.252       .  S
In269       O272   2.229       .  S
In269       O280   2.249       .  S
In269       O274   2.265       .  S
In269       O276   2.299       .  S
In269       O277   2.229       .  S
In269       O278   2.219       .  S
In269       O281   2.261       .  S
C270        O276   1.265       .  A
C270        O278   1.253       .  A
C270        C534   1.487       .  S
O271        C279   1.260       .  A
O272        C279   1.257       .  A
C273        O280   1.260       .  A
C273        O274   1.262       .  A
C273        C425   1.486       .  S
C275        O277   1.260       .  A
C275        O281   1.264       .  A
C275       C1354   1.477       .  S
C279        C365   1.471       .  S
In282       O284   2.236   1_545  S
In282       O285   2.243   1_545  S
In282       O293   2.247       .  S
In282       O287   2.293       .  S
In282       O289   2.279       .  S
In282       O290   2.254       .  S
In282       O291   2.264       .  S
In282       O294   2.274       .  S
C283        O289   1.264       .  A
C283        O291   1.259       .  A
C283        C345   1.495       .  S
O284        C292   1.259       .  A
O285        C292   1.263       .  A
C286        O293   1.258       .  A
C286        O287   1.267       .  A
C286        C774   1.495       .  S
C288        O290   1.260       .  A
C288        O294   1.263       .  A
C288       C1474   1.484       .  S
C292        C374   1.472       .  S
In295       O297   2.242       .  S
In295       O298   2.243       .  S
In295       O306   2.243       .  S
In295       O300   2.281       .  S
In295       O302   2.282       .  S
In295       O303   2.213       .  S
In295       O304   2.240       .  S
In295       O307   2.281       .  S
C296        O302   1.262       .  A
C296        O304   1.255       .  A
C296        C454   1.483       .  S
O297        C305   1.261       .  A
O298        C305   1.261       .  A
C299        O306   1.255       .  A
C299        O300   1.262       .  A
C299        C814   1.487       .  S
C301        O303   1.259       .  A
C301        O307   1.267       .  A
C301       C1114   1.484       .  S
C305        C334   1.473       .  S
In308       O310   2.251       .  S
In308       O311   2.223       .  S
In308       O319   2.226       .  S
In308       O313   2.303       .  S
In308       O315   2.287       .  S
In308       O316   2.217       .  S
In308       O317   2.242       .  S
In308       O320   2.294       .  S
C309        O315   1.264       .  A
C309        O317   1.256       .  A
C309        C394   1.490       .  S
O310        C318   1.262       .  A
O311        C318   1.259       .  A
C312        O319   1.257       .  A
C312        O313   1.266       .  A
C312        C354   1.492       .  S
C314        O316   1.256       .  A
C314        O320   1.267       .  A
C314       C1334   1.486       .  S
C318        C325   1.474       .  S
C321        C322   1.406       .  A
C321        C326   1.398       .  A
C321        H331   1.083       .  S
C322        C327   1.484       .  S
C322        C323   1.408       .  A
C323        C324   1.393       .  A
C323        F328   1.358       .  S
C324        C325   1.403       .  A
C324        H329   1.083       .  S
C325        C326   1.406       .  A
C326        F330   1.357       .  S
C327        C332   1.408       .  A
C327        C336   1.406       .  A
C332        C333   1.396       .  A
C332        F337   1.357       .  S
C333        C334   1.403       .  A
C333        H338   1.083       .  S
C334        C335   1.405       .  A
C335        C336   1.397       .  A
C335        F339   1.357       .  S
C336        H340   1.083       .  S
C341        C342   1.405       .  A
C341        C346   1.407       .  A
C341        H351   1.083       .  S
C342        C347   1.496   1_545  S
C342        C343   1.409       .  A
C343        C344   1.403       .  A
C343        F348   1.358       .  S
C344        C345   1.406       .  A
C344        H349   1.083       .  S
C345        C346   1.413       .  A
C346        F350   1.357       .  S
C347        C352   1.405       .  A
C347        C356   1.410       .  A
C352        C353   1.396       .  A
C352        F357   1.357       .  S
C353        C354   1.406       .  A
C353        H358   1.083       .  S
C354        C355   1.411       .  A
C355        C356   1.412       .  A
C355        F359   1.357       .  S
C356        H360   1.083   1_565  S
C361        C362   1.402       .  A
C361        C366   1.398       .  A
C361        H371   1.083       .  S
C362        C367   1.468       .  S
C362        C363   1.401       .  A
C363        C364   1.393       .  A
C363        F368   1.358       .  S
C364        C365   1.405       .  A
C364        H369   1.083       .  S
C365        C366   1.407       .  A
C366        F370   1.357       .  S
C367        C372   1.402       .  A
C367        C376   1.401       .  A
C372        C373   1.394       .  A
C372        F377   1.358       .  S
C373        C374   1.403       .  A
C373        H378   1.083       .  S
C374        C375   1.409       .  A
C375        C376   1.398       .  A
C375        F379   1.358       .  S
C376        H380   1.083       .  S
C381        C382   1.407       .  A
C381        C386   1.403       .  A
C381        H391   1.083       .  S
C382        C387   1.488       .  S
C382        C383   1.406       .  A
C383        C384   1.399       .  A
C383        F388   1.358       .  S
C384        C385   1.407       .  A
C384        H389   1.083   1_565  S
C385        C386   1.408       .  A
C386        F390   1.357       .  S
C387        C392   1.409       .  A
C387        C396   1.402       .  A
C392        C393   1.405       .  A
C392        F397   1.358       .  S
C393        C394   1.407       .  A
C393        H398   1.083       .  S
C394        C395   1.412       .  A
C395        C396   1.399       .  A
C395        F399   1.357       .  S
C396        H400   1.083       .  S
C401        C402   1.404       .  A
C401        C406   1.393       .  A
C401        H411   1.083       .  S
C402        C407   1.479       .  S
C402        C403   1.406       .  A
C403        C404   1.399       .  A
C403        F408   1.358       .  S
C404        C405   1.406       .  A
C404        H409   1.083       .  S
C405        C406   1.405       .  A
C406        F410   1.357       .  S
C407        C412   1.406       .  A
C407        C416   1.405       .  A
C412        C413   1.392       .  A
C412        F417   1.358       .  S
C413        C414   1.403       .  A
C413        H418   1.083       .  S
C414        C415   1.407       .  A
C415        C416   1.400       .  A
C415        F419   1.357       .  S
C416        H420   1.083       .  S
C421        C422   1.406       .  A
C421        C426   1.401       .  A
C421        H431   1.083       .  S
C422        C427   1.488       .  S
C422        C423   1.405       .  A
C423        C424   1.401       .  A
C423        F428   1.357       .  S
C424        C425   1.407       .  A
C424        H429   1.083       .  S
C425        C426   1.409       .  A
C426        F430   1.357       .  S
C427        C432   1.405       .  A
C427        C436   1.407       .  A
C432        C433   1.399       .  A
C432        F437   1.357       .  S
C433        C434   1.408       .  A
C433        H438   1.083       .  S
C434        C435   1.408       .  A
C435        C436   1.403       .  A
C435        F439   1.357       .  S
C436        H440   1.083       .  S
C441        C442   1.409       .  A
C441        C446   1.400       .  A
C441        H451   1.083       .  S
C442        C447   1.496       .  S
C442        C443   1.409       .  A
C443        C444   1.402       .  A
C443        F448   1.357       .  S
C444        C445   1.408       .  A
C444        H449   1.083       .  S
C445        C446   1.405       .  A
C446        F450   1.357       .  S
C447        C452   1.409       .  A
C447        C456   1.410       .  A
C452        C453   1.399       .  A
C452        F457   1.357       .  S
C453        C454   1.405       .  A
C453        H458   1.083       .  S
C454        C455   1.406       .  A
C455        C456   1.403       .  A
C455        F459   1.357       .  S
C456        H460   1.082       .  S
C461        C462   1.403       .  A
C461        C466   1.391       .  A
C461        H471   1.083       .  S
C462        C467   1.477       .  S
C462        C463   1.406       .  A
C463        C464   1.397       .  A
C463        F468   1.357       .  S
C464        C465   1.404       .  A
C464        H469   1.083       .  S
C465        C466   1.406       .  A
C466        F470   1.358       .  S
C467        C472   1.406       .  A
C467        C476   1.405       .  A
C472        C473   1.392       .  A
C472        F477   1.358       .  S
C473        C474   1.404       .  A
C473        H478   1.083       .  S
C474        C475   1.406       .  A
C475        C476   1.396       .  A
C475        F479   1.357       .  S
C476        H480   1.083       .  S
C481        C482   1.408       .  A
C481        C486   1.407       .  A
C481        H491   1.083       .  S
C482        C487   1.492       .  S
C482        C483   1.406       .  A
C483        C484   1.399       .  A
C483        F488   1.358       .  S
C484        C485   1.408       .  A
C484        H489   1.083       .  S
C485        C486   1.409       .  A
C486        F490   1.357       .  S
C487        C492   1.410       .  A
C487        C496   1.403       .  A
C492        C493   1.406       .  A
C492        F497   1.357       .  S
C493        C494   1.406       .  A
C493        H498   1.083       .  S
C494        C495   1.412       .  A
C495        C496   1.399       .  A
C495        F499   1.358   1_556  S
C496        H500   1.083       .  S
C501        C502   1.405       .  A
C501        C506   1.398       .  A
C501        H511   1.083       .  S
C502        C507   1.482       .  S
C502        C503   1.407       .  A
C503        C504   1.396       .  A
C503        F508   1.358       .  S
C504        C505   1.404       .  A
C504        H509   1.083       .  S
C505        C506   1.408       .  A
C506        F510   1.357       .  S
C507        C512   1.407       .  A
C507        C516   1.406       .  A
C512        C513   1.393       .  A
C512        F517   1.358       .  S
C513        C514   1.403       .  A
C513        H518   1.083       .  S
C514        C515   1.407       .  A
C515        C516   1.399       .  A
C515        F519   1.357       .  S
C516        H520   1.083       .  S
C521        C522   1.408       .  A
C521        C526   1.404       .  A
C521        H531   1.083       .  S
C522        C527   1.491       .  S
C522        C523   1.406       .  A
C523        C524   1.399       .  A
C523        F528   1.358       .  S
C524        C525   1.408       .  A
C524        H529   1.083       .  S
C525        C526   1.407       .  A
C526        F530   1.357       .  S
C527        C532   1.411   1_455  A
C527        C536   1.402   1_455  A
C532        C533   1.407       .  A
C532        F537   1.357   1_655  S
C533        C534   1.406       .  A
C533        H538   1.083       .  S
C534        C535   1.411       .  A
C535        C536   1.395       .  A
C535        F539   1.358       .  S
C536        H540   1.083       .  S
C541        C542   1.406   1_554  A
C541        C546   1.402       .  A
C541        H551   1.083   1_554  S
C542        C547   1.489       .  S
C542        C543   1.406   1_556  A
C543        C544   1.402       .  A
C543        F548   1.357   1_554  S
C544        C545   1.408       .  A
C544        H549   1.083       .  S
C545        C546   1.407       .  A
C546        F550   1.357       .  S
C547        C552   1.408       .  A
C547        C556   1.403       .  A
C552        C553   1.406       .  A
C552        F557   1.357   1_556  S
C553        C554   1.407       .  A
C553        H558   1.083       .  S
C554        C555   1.412       .  A
C555        C556   1.398       .  A
C555        F559   1.358       .  S
C556        H560   1.084       .  S
C561        C562   1.401       .  A
C561        C566   1.393       .  A
C561        H571   1.084       .  S
C562        C567   1.478       .  S
C562        C563   1.406       .  A
C563        C564   1.400       .  A
C563        F568   1.357       .  S
C564        C565   1.406       .  A
C564        H569   1.083       .  S
C565        C566   1.409       .  A
C566        F570   1.357       .  S
C567        C572   1.406       .  A
C567        C576   1.402       .  A
C572        C573   1.394       .  A
C572        F577   1.358       .  S
C573        C574   1.403       .  A
C573        H578   1.083       .  S
C574        C575   1.409       .  A
C575        C576   1.398       .  A
C575        F579   1.357       .  S
C576        H580   1.083       .  S
C581        C582   1.407       .  A
C581        C586   1.399       .  A
C581        H591   1.083       .  S
C582        C587   1.494       .  S
C582        C583   1.408       .  A
C583        C584   1.404   1_455  A
C583        F588   1.357       .  S
C584        C585   1.408       .  A
C584        H589   1.083       .  S
C585        C586   1.407   1_655  A
C586        F590   1.357       .  S
C587        C592   1.407       .  A
C587        C596   1.409       .  A
C592        C593   1.398       .  A
C592        F597   1.357       .  S
C593        C594   1.406       .  A
C593        H598   1.083       .  S
C594        C595   1.409       .  A
C595        C596   1.406       .  A
C595        F599   1.357       .  S
C596        H600   1.083       .  S
C601        C602   1.401       .  A
C601        C606   1.399       .  A
C601        H611   1.083       .  S
C602        C607   1.486       .  S
C602        C603   1.409       .  A
C603        C604   1.403       .  A
C603        F608   1.357       .  S
C604        C605   1.405       .  A
C604        H609   1.083       .  S
C605        C606   1.412       .  A
C606        F610   1.358       .  S
C607        C612   1.403       .  A
C607        C616   1.408       .  A
C612        C613   1.394       .  A
C612        F617   1.358       .  S
C613        C614   1.407       .  A
C613        H618   1.083       .  S
C614        C615   1.408       .  A
C615        C616   1.407       .  A
C615        F619   1.357       .  S
C616        H620   1.083       .  S
C621        C622   1.402       .  A
C621        C626   1.396       .  A
C621        H631   1.083       .  S
C622        C627   1.469       .  S
C622        C623   1.402       .  A
C623        C624   1.394       .  A
C623        F628   1.358       .  S
C624        C625   1.406       .  A
C624        H629   1.083       .  S
C625        C626   1.407       .  A
C626        F630   1.357       .  S
C627        C632   1.402       .  A
C627        C636   1.402       .  A
C632        C633   1.393       .  A
C632        F637   1.358       .  S
C633        C634   1.404       .  A
C633        H638   1.083       .  S
C634        C635   1.407       .  A
C635        C636   1.397       .  A
C635        F639   1.357       .  S
C636        H640   1.083       .  S
C641        C642   1.402       .  A
C641        C646   1.401       .  A
C641        H651   1.083       .  S
C642        C647   1.490       .  S
C642        C643   1.410       .  A
C643        C644   1.402       .  A
C643        F648   1.358       .  S
C644        C645   1.405       .  A
C644        H649   1.083       .  S
C645        C646   1.412       .  A
C646        F650   1.357       .  S
C647        C652   1.404       .  A
C647        C656   1.410       .  A
C652        C653   1.392       .  A
C652        F657   1.358       .  S
C653        C654   1.406       .  A
C653        H658   1.083       .  S
C654        C655   1.409       .  A
C655        C656   1.410       .  A
C655        F659   1.357       .  S
C656        H660   1.083       .  S
C661        C662   1.412       .  A
C661        C666   1.408       .  A
C661        H671   1.083       .  S
C662        C667   1.500       .  S
C662        C663   1.408       .  A
C663        C664   1.397       .  A
C663        F668   1.357       .  S
C664        C665   1.406       .  A
C664        H669   1.083       .  S
C665        C666   1.408       .  A
C666        F670   1.357       .  S
C667        C672   1.414       .  A
C667        C676   1.405       .  A
C672        C673   1.405       .  A
C672        F677   1.357       .  S
C673        C674   1.404       .  A
C673        H678   1.083       .  S
C674        C675   1.411       .  A
C675        C676   1.399       .  A
C675        F679   1.358       .  S
C676        H680   1.083       .  S
C681        C682   1.403       .  A
C681        C686   1.394       .  A
C681        H691   1.083       .  S
C682        C687   1.479       .  S
C682        C683   1.407       .  A
C683        C684   1.396       .  A
C683        F688   1.357       .  S
C684        C685   1.403       .  A
C684        H689   1.083       .  S
C685        C686   1.408       .  A
C686        F690   1.358       .  S
C687        C692   1.407       .  A
C687        C696   1.403       .  A
C692        C693   1.398       .  A
C692        F697   1.358       .  S
C693        C694   1.404       .  A
C693        H698   1.083       .  S
C694        C695   1.407       .  A
C695        C696   1.393       .  A
C695        F699   1.358       .  S
C696        H700   1.083       .  S
C701        C702   1.408       .  A
C701        C706   1.404       .  A
C701        H711   1.083       .  S
C702        C707   1.486       .  S
C702        C703   1.404       .  A
C703        C704   1.397       .  A
C703        F708   1.358       .  S
C704        C705   1.408       .  A
C704        H709   1.083       .  S
C705        C706   1.407       .  A
C706        F710   1.357       .  S
C707        C712   1.409   1_545  A
C707        C716   1.402   1_545  A
C712        C713   1.404       .  A
C712        F717   1.357   1_565  S
C713        C714   1.406       .  A
C713        H718   1.083       .  S
C714        C715   1.411       .  A
C715        C716   1.396       .  A
C715        F719   1.358       .  S
C716        H720   1.084       .  S
C721        C722   1.408       .  A
C721        C726   1.408       .  A
C721        H731   1.083       .  S
C722        C727   1.490   1_655  S
C722        C723   1.404       .  A
C723        C724   1.399       .  A
C723        F728   1.358       .  S
C724        C725   1.408       .  A
C724        H729   1.083       .  S
C725        C726   1.409       .  A
C726        F730   1.357       .  S
C727        C732   1.410       .  A
C727        C736   1.401   1_455  A
C732        C733   1.407       .  A
C732        F737   1.357       .  S
C733        C734   1.406       .  A
C733        H738   1.083       .  S
C734        C735   1.412   1_455  A
C735        C736   1.399       .  A
C735        F739   1.358       .  S
C736        H740   1.083       .  S
C741        C742   1.405       .  A
C741        C746   1.405       .  A
C741        H751   1.087       .  S
C742        C747   1.486       .  S
C742        C743   1.406       .  A
C743        C744   1.398       .  A
C743        F748   1.358       .  S
C744        C745   1.407       .  A
C744        H749   1.086       .  S
C745        C746   1.410       .  A
C746        F750   1.356       .  S
C747        C752   1.407       .  A
C747        C756   1.404       .  A
C752        C753   1.402       .  A
C752        F757   1.357       .  S
C753        C754   1.406       .  A
C753        H758   1.077   1_545  S
C754        C755   1.410       .  A
C755        C756   1.401       .  A
C755        F759   1.358       .  S
C756        H760   1.076       .  S
C761        C762   1.411       .  A
C761        C766   1.406   1_554  A
C761        H771   1.083       .  S
C762        C767   1.502       .  S
C762        C763   1.409   1_554  A
C763        C764   1.401       .  A
C763        F768   1.357   1_556  S
C764        C765   1.408       .  A
C764        H769   1.083       .  S
C765        C766   1.407       .  A
C766        F770   1.357       .  S
C767        C772   1.413       .  A
C767        C776   1.406       .  A
C772        C773   1.407       .  A
C772        F777   1.357       .  S
C773        C774   1.406       .  A
C773        H778   1.083       .  S
C774        C775   1.411       .  A
C775        C776   1.402       .  A
C775        F779   1.357       .  S
C776        H780   1.083       .  S
C781        C782   1.402       .  A
C781        C786   1.398       .  A
C781        H791   1.083       .  S
C782        C787   1.467       .  S
C782        C783   1.401       .  A
C783        C784   1.391       .  A
C783        F788   1.358       .  S
C784        C785   1.404       .  A
C784        H789   1.083       .  S
C785        C786   1.407       .  A
C786        F790   1.357       .  S
C787        C792   1.402       .  A
C787        C796   1.400       .  A
C792        C793   1.398       .  A
C792        F797   1.357       .  S
C793        C794   1.407       .  A
C793        H798   1.083       .  S
C794        C795   1.407       .  A
C795        C796   1.390       .  A
C795        F799   1.358       .  S
C796        H800   1.084       .  S
C801        C802   1.403       .  A
C801        C806   1.399       .  A
C801        H811   1.083       .  S
C802        C807   1.488       .  S
C802        C803   1.410       .  A
C803        C804   1.403       .  A
C803        F808   1.358       .  S
C804        C805   1.405       .  A
C804        H809   1.083       .  S
C805        C806   1.408       .  A
C806        F810   1.357       .  S
C807        C812   1.409   1_545  A
C807        C816   1.402   1_545  A
C812        C813   1.402       .  A
C812        F817   1.357   1_565  S
C813        C814   1.405       .  A
C813        H818   1.083       .  S
C814        C815   1.412       .  A
C815        C816   1.400       .  A
C815        F819   1.357       .  S
C816        H820   1.083       .  S
C821        C822   1.401       .  A
C821        C826   1.398       .  A
C821        H831   1.084       .  S
C822        C827   1.490       .  S
C822        C823   1.409       .  A
C823        C824   1.408       .  A
C823        F828   1.357       .  S
C824        C825   1.407       .  A
C824        H829   1.083       .  S
C825        C826   1.412       .  A
C826        F830   1.358       .  S
C827        C832   1.404       .  A
C827        C836   1.408       .  A
C832        C833   1.401       .  A
C832        F837   1.357       .  S
C833        C834   1.409       .  A
C833        H838   1.083       .  S
C834        C835   1.409       .  A
C835        C836   1.406       .  A
C835        F839   1.357       .  S
C836        H840   1.083       .  S
C841        C842   1.402       .  A
C841        C846   1.394       .  A
C841        H851   1.083       .  S
C842        C847   1.472       .  S
C842        C843   1.404       .  A
C843        C844   1.396       .  A
C843        F848   1.358       .  S
C844        C845   1.405       .  A
C844        H849   1.083       .  S
C845        C846   1.407       .  A
C846        F850   1.357       .  S
C847        C852   1.404       .  A
C847        C856   1.402       .  A
C852        C853   1.392       .  A
C852        F857   1.358       .  S
C853        C854   1.403       .  A
C853        H858   1.083       .  S
C854        C855   1.408       .  A
C855        C856   1.398       .  A
C855        F859   1.357       .  S
C856        H860   1.083       .  S
C861        C862   1.412       .  A
C861        C866   1.408       .  A
C861        H871   1.082       .  S
C862        C867   1.502       .  S
C862        C863   1.409       .  A
C863        C864   1.397       .  A
C863        F868   1.358       .  S
C864        C865   1.406       .  A
C864        H869   1.084       .  S
C865        C866   1.406       .  A
C866        F870   1.357       .  S
C867        C872   1.411       .  A
C867        C876   1.408       .  A
C872        C873   1.407       .  A
C872        F877   1.357       .  S
C873        C874   1.408       .  A
C873        H878   1.083       .  S
C874        C875   1.409       .  A
C875        C876   1.400       .  A
C875        F879   1.357       .  S
C876        H880   1.083       .  S
C881        C882   1.402       .  A
C881        C886   1.399       .  A
C881        H891   1.084   1_655  S
C882        C887   1.482   1_655  S
C882        C883   1.404       .  A
C883        C884   1.404       .  A
C883        F888   1.357       .  S
C884        C885   1.408       .  A
C884        H889   1.083       .  S
C885        C886   1.411       .  A
C886        F890   1.358       .  S
C887        C892   1.402       .  A
C887        C896   1.405       .  A
C892        C893   1.399       .  A
C892        F897   1.357       .  S
C893        C894   1.407       .  A
C893        H898   1.083       .  S
C894        C895   1.411       .  A
C895        C896   1.405       .  A
C895        F899   1.357       .  S
C896        H900   1.083       .  S
C901        C902   1.404       .  A
C901        C906   1.398       .  A
C901        H911   1.083       .  S
C902        C907   1.494       .  S
C902        C903   1.410       .  A
C903        C904   1.407       .  A
C903        F908   1.357       .  S
C904        C905   1.406       .  A
C904        H909   1.083       .  S
C905        C906   1.411       .  A
C906        F910   1.358       .  S
C907        C912   1.408       .  A
C907        C916   1.408       .  A
C912        C913   1.402       .  A
C912        F917   1.357       .  S
C913        C914   1.407       .  A
C913        H918   1.083       .  S
C914        C915   1.408       .  A
C915        C916   1.402       .  A
C915        F919   1.357       .  S
C916        H920   1.083       .  S
C921        C922   1.404       .  A
C921        C926   1.397       .  A
C921        H931   1.083       .  S
C922        C927   1.470       .  S
C922        C923   1.403       .  A
C923        C924   1.387       .  A
C923        F928   1.358       .  S
C924        C925   1.400       .  A
C924        H929   1.083       .  S
C925        C926   1.407       .  A
C926        F930   1.358       .  S
C927        C932   1.403       .  A
C927        C936   1.403       .  A
C932        C933   1.395       .  A
C932        F937   1.357       .  S
C933        C934   1.405       .  A
C933        H938   1.083       .  S
C934        C935   1.404       .  A
C935        C936   1.389       .  A
C935        F939   1.358       .  S
C936        H940   1.083       .  S
C941        C942   1.409       .  A
C941        C946   1.407       .  A
C941        H951   1.083       .  S
C942        C947   1.498       .  S
C942        C943   1.407       .  A
C943        C944   1.403       .  A
C943        F948   1.358       .  S
C944        C945   1.410       .  A
C944        H949   1.083       .  S
C945        C946   1.409       .  A
C946        F950   1.357       .  S
C947        C952   1.412       .  A
C947        C956   1.403       .  A
C952        C953   1.408       .  A
C952        F957   1.357       .  S
C953        C954   1.407       .  A
C953        H958   1.083       .  S
C954        C955   1.413       .  A
C955        C956   1.400       .  A
C955        F959   1.357       .  S
C956        H960   1.083       .  S
C961        C962   1.403       .  A
C961        C966   1.401       .  A
C961        H971   1.083   1_556  S
C962        C967   1.485   1_556  S
C962        C963   1.405       .  A
C963        C964   1.406       .  A
C963        F968   1.357       .  S
C964        C965   1.408       .  A
C964        H969   1.083       .  S
C965        C966   1.410       .  A
C966        F970   1.358       .  S
C967        C972   1.404       .  A
C967        C976   1.404       .  A
C972        C973   1.404       .  A
C972        F977   1.357       .  S
C973        C974   1.410       .  A
C973        H978   1.083       .  S
C974        C975   1.410       .  A
C975        C976   1.404       .  A
C975        F979   1.357       .  S
C976        H980   1.083       .  S
C981        C982   1.402       .  A
C981        C986   1.398       .  A
C981        H991   1.084       .  S
C982        C987   1.488       .  S
C982        C983   1.408       .  A
C983        C984   1.406       .  A
C983        F988   1.357       .  S
C984        C985   1.407       .  A
C984        H989   1.083       .  S
C985        C986   1.411       .  A
C986        F990   1.358       .  S
C987        C992   1.405       .  A
C987        C996   1.406       .  A
C992        C993   1.402       .  A
C992        F997   1.357       .  S
C993        C994   1.409       .  A
C993        H998   1.083       .  S
C994        C995   1.408       .  A
C995        C996   1.402       .  A
C995        F999   1.357       .  S
C996       H1000   1.083       .  S
C1001      C1002   1.407       .  A
C1001      C1006   1.403       .  A
C1001      H1011   1.083       .  S
C1002      C1007   1.493       .  S
C1002      C1003   1.406       .  A
C1003      C1004   1.403       .  A
C1003      F1008   1.357       .  S
C1004      C1005   1.409       .  A
C1004      H1009   1.083       .  S
C1005      C1006   1.408       .  A
C1006      F1010   1.357       .  S
C1007      C1012   1.409       .  A
C1007      C1016   1.403       .  A
C1012      C1013   1.407       .  A
C1012      F1017   1.357       .  S
C1013      C1014   1.407       .  A
C1013      H1018   1.083       .  S
C1014      C1015   1.412       .  A
C1015      C1016   1.399       .  A
C1015      F1019   1.358       .  S
C1016      H1020   1.084       .  S
C1021      C1022   1.403       .  A
C1021      C1026   1.394       .  A
C1021      H1031   1.083       .  S
C1022      C1027   1.478       .  S
C1022      C1023   1.406       .  A
C1023      C1024   1.398       .  A
C1023      F1028   1.357       .  S
C1024      C1025   1.404       .  A
C1024      H1029   1.083       .  S
C1025      C1026   1.408       .  A
C1026      F1030   1.358       .  S
C1027      C1032   1.406       .  A
C1027      C1036   1.403       .  A
C1032      C1033   1.396       .  A
C1032      F1037   1.358       .  S
C1033      C1034   1.403       .  A
C1033      H1038   1.083       .  S
C1034      C1035   1.407       .  A
C1035      C1036   1.397       .  A
C1035      F1039   1.358       .  S
C1036      H1040   1.083       .  S
C1041      C1042   1.402       .  A
C1041      C1046   1.400       .  A
C1041      H1051   1.083       .  S
C1042      C1047   1.478       .  S
C1042      C1043   1.399       .  A
C1043      C1044   1.394       .  A
C1043      F1048   1.358       .  S
C1044      C1045   1.418       .  A
C1044      H1049   1.079       .  S
C1045      C1046   1.417       .  A
C1046      F1050   1.358       .  S
C1047      C1052   1.403       .  A
C1047      C1056   1.405       .  A
C1052      C1053   1.394       .  A
C1052      F1057   1.358       .  S
C1053      C1054   1.406       .  A
C1053      H1058   1.083       .  S
C1054      C1055   1.408       .  A
C1055      C1056   1.403       .  A
C1055      F1059   1.357       .  S
C1056      H1060   1.083       .  S
C1061      C1062   1.407       .  A
C1061      C1066   1.404       .  A
C1061      H1071   1.083       .  S
C1062      C1067   1.488       .  S
C1062      C1063   1.408       .  A
C1063      C1064   1.394       .  A
C1063      F1068   1.358       .  S
C1064      C1065   1.400       .  A
C1064      H1069   1.083       .  S
C1065      C1066   1.408       .  A
C1066      F1070   1.357       .  S
C1067      C1072   1.406       .  A
C1067      C1076   1.401       .  A
C1072      C1073   1.404       .  A
C1072      F1077   1.357       .  S
C1073      C1074   1.419       .  A
C1073      H1078   1.079       .  S
C1074      C1075   1.417       .  A
C1075      C1076   1.389       .  A
C1075      F1079   1.357       .  S
C1076      H1080   1.083       .  S
C1081      C1082   1.406       .  A
C1081      C1086   1.404       .  A
C1081      H1091   1.083       .  S
C1082      C1087   1.482       .  S
C1082      C1083   1.403       .  A
C1083      C1084   1.396       .  A
C1083      F1088   1.358       .  S
C1084      C1085   1.407       .  A
C1084      H1089   1.083       .  S
C1085      C1086   1.408       .  A
C1086      F1090   1.357       .  S
C1087      C1092   1.397       .  A
C1087      C1096   1.401       .  A
C1092      C1093   1.396       .  A
C1092      F1097   1.358       .  S
C1093      C1094   1.422       .  A
C1093      H1098   1.075       .  S
C1094      C1095   1.422       .  A
C1095      C1096   1.402       .  A
C1095      F1099   1.358       .  S
C1096      H1100   1.083       .  S
C1101      C1102   1.400       .  A
C1101      C1106   1.393       .  A
C1101      H1111   1.084       .  S
C1102      C1107   1.483       .  S
C1102      C1103   1.402       .  A
C1103      C1104   1.403       .  A
C1103      F1108   1.357       .  S
C1104      C1105   1.420       .  A
C1104      H1109   1.080       .  S
C1105      C1106   1.418       .  A
C1106      F1110   1.356       .  S
C1107      C1112   1.408       .  A
C1107      C1116   1.401       .  A
C1112      C1113   1.407       .  A
C1112      F1117   1.357       .  S
C1113      C1114   1.408       .  A
C1113      H1118   1.083       .  S
C1114      C1115   1.409       .  A
C1115      C1116   1.391       .  A
C1115      F1119   1.358       .  S
C1116      H1120   1.084       .  S
C1121      C1122   1.403       .  A
C1121      C1126   1.392       .  A
C1121      H1131   1.084       .  S
C1122      C1127   1.479       .  S
C1122      C1123   1.407       .  A
C1123      C1124   1.401       .  A
C1123      F1128   1.357       .  S
C1124      C1125   1.404       .  A
C1124      H1129   1.083       .  S
C1125      C1126   1.407       .  A
C1126      F1130   1.358   1_565  S
C1127      C1132   1.402       .  A
C1127      C1136   1.400       .  A
C1132      C1133   1.394       .  A
C1132      F1137   1.358       .  S
C1133      C1134   1.416       .  A
C1133      H1138   1.083       .  S
C1134      C1135   1.421       .  A
C1135      C1136   1.397       .  A
C1135      F1139   1.355       .  S
C1136      H1140   1.083       .  S
C1141      C1142   1.396       .  A
C1141      C1146   1.396       .  A
C1141      H1151   1.084       .  S
C1142      C1147   1.483       .  S
C1142      C1143   1.402       .  A
C1143      C1144   1.399   1_545  A
C1143      F1148   1.357       .  S
C1144      C1145   1.415       .  A
C1144      H1149   1.083       .  S
C1145      C1146   1.430   1_565  A
C1146      F1150   1.355   1_545  S
C1147      C1152   1.407       .  A
C1147      C1156   1.402       .  A
C1152      C1153   1.402       .  A
C1152      F1157   1.357       .  S
C1153      C1154   1.406       .  A
C1153      H1158   1.083       .  S
C1154      C1155   1.410       .  A
C1155      C1156   1.396       .  A
C1155      F1159   1.358       .  S
C1156      H1160   1.084       .  S
C1161      C1162   1.408       .  A
C1161      C1166   1.401       .  A
C1161      H1171   1.081       .  S
C1162      C1167   1.501       .  S
C1162      C1163   1.407       .  A
C1163      C1164   1.394       .  A
C1163      F1168   1.357       .  S
C1164      C1165   1.415       .  A
C1164      H1169   1.083       .  S
C1165      C1166   1.418       .  A
C1166      F1170   1.354       .  S
C1167      C1172   1.407       .  A
C1167      C1176   1.407       .  A
C1172      C1173   1.395       .  A
C1172      F1177   1.357       .  S
C1173      C1174   1.416       .  A
C1173      H1178   1.083       .  S
C1174      C1175   1.418       .  A
C1175      C1176   1.400       .  A
C1175      F1179   1.354       .  S
C1176      H1180   1.081       .  S
C1181      C1182   1.400       .  A
C1181      C1186   1.395       .  A
C1181      H1191   1.083       .  S
C1182      C1187   1.488       .  S
C1182      C1183   1.405       .  A
C1183      C1184   1.401       .  A
C1183      F1188   1.357       .  S
C1184      C1185   1.415       .  A
C1184      H1189   1.079       .  S
C1185      C1186   1.422       .  A
C1186      F1190   1.357       .  S
C1187      C1192   1.409       .  A
C1187      C1196   1.406       .  A
C1192      C1193   1.398       .  A
C1192      F1197   1.358       .  S
C1193      C1194   1.405       .  A
C1193      H1198   1.083       .  S
C1194      C1195   1.406       .  A
C1195      C1196   1.399       .  A
C1195      F1199   1.357       .  S
C1196      H1200   1.083       .  S
C1201      C1202   1.403       .  A
C1201      C1206   1.396       .  A
C1201      H1211   1.084       .  S
C1202      C1207   1.483       .  S
C1202      C1203   1.407       .  A
C1203      C1204   1.401       .  A
C1203      F1208   1.357       .  S
C1204      C1205   1.405       .  A
C1204      H1209   1.083       .  S
C1205      C1206   1.409       .  A
C1206      F1210   1.358       .  S
C1207      C1212   1.401       .  A
C1207      C1216   1.399       .  A
C1212      C1213   1.396       .  A
C1212      F1217   1.358       .  S
C1213      C1214   1.418       .  A
C1213      H1218   1.083       .  S
C1214      C1215   1.424       .  A
C1215      C1216   1.398       .  A
C1215      F1219   1.354       .  S
C1216      H1220   1.083       .  S
C1221      C1222   1.407       .  A
C1221      C1226   1.408       .  A
C1221      H1231   1.083       .  S
C1222      C1227   1.486       .  S
C1222      C1223   1.403       .  A
C1223      C1224   1.395       .  A
C1223      F1228   1.358       .  S
C1224      C1225   1.406       .  A
C1224      H1229   1.083       .  S
C1225      C1226   1.410       .  A
C1226      F1230   1.357       .  S
C1227      C1232   1.401       .  A
C1227      C1236   1.403       .  A
C1232      C1233   1.400       .  A
C1232      F1237   1.358       .  S
C1233      C1234   1.418       .  A
C1233      H1238   1.080       .  S
C1234      C1235   1.418       .  A
C1235      C1236   1.402       .  A
C1235      F1239   1.356       .  S
C1236      H1240   1.083       .  S
C1241      C1242   1.399       .  A
C1241      C1246   1.399       .  A
C1241      H1251   1.084       .  S
C1242      C1247   1.488       .  S
C1242      C1243   1.403       .  A
C1243      C1244   1.400       .  A
C1243      F1248   1.357       .  S
C1244      C1245   1.417       .  A
C1244      H1249   1.083       .  S
C1245      C1246   1.428       .  A
C1246      F1250   1.354       .  S
C1247      C1252   1.408       .  A
C1247      C1256   1.404       .  A
C1252      C1253   1.402       .  A
C1252      F1257   1.357       .  S
C1253      C1254   1.404       .  A
C1253      H1258   1.083       .  S
C1254      C1255   1.411       .  A
C1255      C1256   1.398       .  A
C1255      F1259   1.358   1_556  S
C1256      H1260   1.083       .  S
C1261      C1262   1.404       .  A
C1261      C1266   1.403       .  A
C1261      H1271   1.083       .  S
C1262      C1267   1.488       .  S
C1262      C1263   1.403       .  A
C1263      C1264   1.395       .  A
C1263      F1268   1.358       .  S
C1264      C1265   1.417       .  A
C1264      H1269   1.078       .  S
C1265      C1266   1.418       .  A
C1266      F1270   1.357       .  S
C1267      C1272   1.406       .  A
C1267      C1276   1.409       .  A
C1272      C1273   1.396       .  A
C1272      F1277   1.358       .  S
C1273      C1274   1.405       .  A
C1273      H1278   1.083       .  S
C1274      C1275   1.406       .  A
C1275      C1276   1.404       .  A
C1275      F1279   1.357       .  S
C1276      H1280   1.083       .  S
C1281      C1282   1.398       .  A
C1281      C1286   1.390   1_554  A
C1281      H1291   1.084       .  S
C1282      C1287   1.478       .  S
C1282      C1283   1.401   1_554  A
C1283      C1284   1.402       .  A
C1283      F1288   1.357   1_556  S
C1284      C1285   1.419       .  A
C1284      H1289   1.079       .  S
C1285      C1286   1.420       .  A
C1286      F1290   1.356       .  S
C1287      C1292   1.406       .  A
C1287      C1296   1.400       .  A
C1292      C1293   1.405       .  A
C1292      F1297   1.357       .  S
C1293      C1294   1.407       .  A
C1293      H1298   1.083       .  S
C1294      C1295   1.409       .  A
C1295      C1296   1.389       .  A
C1295      F1299   1.358       .  S
C1296      H1300   1.084       .  S
C1301      C1302   1.401       .  A
C1301      C1306   1.401       .  A
C1301      H1311   1.083       .  S
C1302      C1307   1.493       .  S
C1302      C1303   1.407       .  A
C1303      C1304   1.403       .  A
C1303      F1308   1.358       .  S
C1304      C1305   1.415       .  A
C1304      H1309   1.079       .  S
C1305      C1306   1.421       .  A
C1306      F1310   1.357       .  S
C1307      C1312   1.403       .  A
C1307      C1316   1.405       .  A
C1312      C1313   1.399       .  A
C1312      F1317   1.358       .  S
C1313      C1314   1.417       .  A
C1313      H1318   1.080       .  S
C1314      C1315   1.418       .  A
C1315      C1316   1.405       .  A
C1315      F1319   1.357       .  S
C1316      H1320   1.083       .  S
C1321      C1322   1.405       .  A
C1321      C1326   1.402       .  A
C1321      H1331   1.083       .  S
C1322      C1327   1.487       .  S
C1322      C1323   1.402       .  A
C1323      C1324   1.397       .  A
C1323      F1328   1.357       .  S
C1324      C1325   1.418       .  A
C1324      H1329   1.079       .  S
C1325      C1326   1.418       .  A
C1326      F1330   1.357       .  S
C1327      C1332   1.405       .  A
C1327      C1336   1.408       .  A
C1332      C1333   1.395       .  A
C1332      F1337   1.358       .  S
C1333      C1334   1.406       .  A
C1333      H1338   1.083       .  S
C1334      C1335   1.408       .  A
C1335      C1336   1.407       .  A
C1335      F1339   1.357       .  S
C1336      H1340   1.083       .  S
C1341      C1342   1.400       .  A
C1341      C1346   1.402       .  A
C1341      H1351   1.083       .  S
C1342      C1347   1.480       .  S
C1342      C1343   1.400       .  A
C1343      C1344   1.392       .  A
C1343      F1348   1.358       .  S
C1344      C1345   1.416       .  A
C1344      H1349   1.083       .  S
C1345      C1346   1.423       .  A
C1346      F1350   1.355       .  S
C1347      C1352   1.406       .  A
C1347      C1356   1.403       .  A
C1352      C1353   1.402       .  A
C1352      F1357   1.358       .  S
C1353      C1354   1.406       .  A
C1353      H1358   1.083       .  S
C1354      C1355   1.406       .  A
C1355      C1356   1.396       .  A
C1355      F1359   1.357       .  S
C1356      H1360   1.083       .  S
C1361      C1362   1.400       .  A
C1361      C1366   1.403       .  A
C1361      H1371   1.083       .  S
C1362      C1367   1.481       .  S
C1362      C1363   1.399       .  A
C1363      C1364   1.396       .  A
C1363      F1368   1.358       .  S
C1364      C1365   1.418       .  A
C1364      H1369   1.077       .  S
C1365      C1366   1.422       .  A
C1366      F1370   1.357       .  S
C1367      C1372   1.404       .  A
C1367      C1376   1.404       .  A
C1372      C1373   1.396       .  A
C1372      F1377   1.358       .  S
C1373      C1374   1.406       .  A
C1373      H1378   1.083       .  S
C1374      C1375   1.410       .  A
C1375      C1376   1.405       .  A
C1375      F1379   1.357       .  S
C1376      H1380   1.083       .  S
C1381      C1382   1.401       .  A
C1381      C1386   1.397       .  A
C1381      H1391   1.083       .  S
C1382      C1387   1.481       .  S
C1382      C1383   1.400       .  A
C1383      C1384   1.399       .  A
C1383      F1388   1.358       .  S
C1384      C1385   1.419       .  A
C1384      H1389   1.078       .  S
C1385      C1386   1.417       .  A
C1386      F1390   1.357       .  S
C1387      C1392   1.402       .  A
C1387      C1396   1.407       .  A
C1392      C1393   1.391       .  A
C1392      F1397   1.358       .  S
C1393      C1394   1.406       .  A
C1393      H1398   1.083   1_655  S
C1394      C1395   1.408       .  A
C1395      C1396   1.405       .  A
C1395      F1399   1.357       .  S
C1396      H1400   1.083       .  S
C1401      C1402   1.405       .  A
C1401      C1406   1.405       .  A
C1401      H1411   1.083       .  S
C1402      C1407   1.471       .  S
C1402      C1403   1.400       .  A
C1403      C1404   1.388       .  A
C1403      F1408   1.358       .  S
C1404      C1405   1.404       .  A
C1404      H1409   1.084       .  S
C1405      C1406   1.407       .  A
C1406      F1410   1.357       .  S
C1407      C1412   1.397       .  A
C1407      C1416   1.400       .  A
C1412      C1413   1.395       .  A
C1412      F1417   1.358       .  S
C1413      C1414   1.419       .  A
C1413      H1418   1.079       .  S
C1414      C1415   1.417       .  A
C1415      C1416   1.397       .  A
C1415      F1419   1.357       .  S
C1416      H1420   1.083       .  S
C1421      C1422   1.397       .  A
C1421      C1426   1.395   1_455  A
C1421      H1431   1.084       .  S
C1422      C1427   1.478       .  S
C1422      C1423   1.401       .  A
C1423      C1424   1.404   1_455  A
C1423      F1428   1.357       .  S
C1424      C1425   1.418       .  A
C1424      H1429   1.079       .  S
C1425      C1426   1.420       .  A
C1426      F1430   1.357       .  S
C1427      C1432   1.405       .  A
C1427      C1436   1.401       .  A
C1432      C1433   1.405       .  A
C1432      F1437   1.357       .  S
C1433      C1434   1.405       .  A
C1433      H1438   1.083       .  S
C1434      C1435   1.408       .  A
C1435      C1436   1.397       .  A
C1435      F1439   1.358       .  S
C1436      H1440   1.084       .  S
C1441      C1442   1.397       .  A
C1441      C1446   1.399       .  A
C1441      H1451   1.084       .  S
C1442      C1447   1.476       .  S
C1442      C1443   1.399       .  A
C1443      C1444   1.397       .  A
C1443      F1448   1.357       .  S
C1444      C1445   1.416       .  A
C1444      H1449   1.083       .  S
C1445      C1446   1.425       .  A
C1446      F1450   1.355       .  S
C1447      C1452   1.399       .  A
C1447      C1456   1.398       .  A
C1452      C1453   1.399       .  A
C1452      F1457   1.358       .  S
C1453      C1454   1.418       .  A
C1453      H1458   1.079       .  S
C1454      C1455   1.419       .  A
C1455      C1456   1.399       .  A
C1455      F1459   1.357       .  S
C1456      H1460   1.083       .  S
C1461      C1462   1.405       .  A
C1461      C1466   1.407       .  A
C1461      H1471   1.083       .  S
C1462      C1467   1.491   1_455  S
C1462      C1463   1.401       .  A
C1463      C1464   1.397       .  A
C1463      F1468   1.358       .  S
C1464      C1465   1.417       .  A
C1464      H1469   1.083       .  S
C1465      C1466   1.422       .  A
C1466      F1470   1.355       .  S
C1467      C1472   1.406       .  A
C1467      C1476   1.407       .  A
C1472      C1473   1.403       .  A
C1472      F1477   1.357       .  S
C1473      C1474   1.405       .  A
C1473      H1478   1.083       .  S
C1474      C1475   1.407       .  A
C1475      C1476   1.404       .  A
C1475      F1479   1.358       .  S
C1476      H1480   1.083       .  S
C1481      C1482   1.403   1_545  A
C1481      C1486   1.407       .  A
C1481      H1491   1.083   1_545  S
C1482      C1487   1.490       .  S
C1482      C1483   1.402   1_565  A
C1483      C1484   1.393       .  A
C1483      F1488   1.358   1_545  S
C1484      C1485   1.417       .  A
C1484      H1489   1.077       .  S
C1485      C1486   1.422       .  A
C1486      F1490   1.357       .  S
C1487      C1492   1.409       .  A
C1487      C1496   1.404       .  A
C1492      C1493   1.407       .  A
C1492      F1497   1.357       .  S
C1493      C1494   1.408       .  A
C1493      H1498   1.083       .  S
C1494      C1495   1.408       .  A
C1495      C1496   1.393       .  A
C1495      F1499   1.358       .  S
C1496      H1500   1.083       .  S
C1501      C1502   1.402   1_554  A
C1501      C1506   1.396       .  A
C1501      H1511   1.083       .  S
C1502      C1507   1.493       .  S
C1502      C1503   1.407   1_556  A
C1503      C1504   1.405       .  A
C1503      F1508   1.357   1_554  S
C1504      C1505   1.416       .  A
C1504      H1509   1.083       .  S
C1505      C1506   1.421       .  A
C1506      F1510   1.356       .  S
C1507      C1512   1.411       .  A
C1507      C1516   1.405       .  A
C1512      C1513   1.404       .  A
C1512      F1517   1.357       .  S
C1513      C1514   1.406       .  A
C1513      H1518   1.083       .  S
C1514      C1515   1.408       .  A
C1515      C1516   1.398       .  A
C1515      F1519   1.357       .  S
C1516      H1520   1.083       .  S
C1521      C1522   1.402       .  A
C1521      C1526   1.401       .  A
C1521      H1531   1.083       .  S
C1522      C1527   1.479       .  S
C1522      C1523   1.400       .  A
C1523      C1524   1.395       .  A
C1523      F1528   1.358       .  S
C1524      C1525   1.417       .  A
C1524      H1529   1.080       .  S
C1525      C1526   1.417       .  A
C1526      F1530   1.357       .  S
C1527      C1532   1.403       .  A
C1527      C1536   1.406       .  A
C1532      C1533   1.393       .  A
C1532      F1537   1.358       .  S
C1533      C1534   1.406       .  A
C1533      H1538   1.083       .  S
C1534      C1535   1.408       .  A
C1535      C1536   1.404       .  A
C1535      F1539   1.357       .  S
C1536      H1540   1.083       .  S
C1541      C1542   1.402       .  A
C1541      C1546   1.393       .  A
C1541      H1551   1.083       .  S
C1542      C1547   1.484       .  S
C1542      C1543   1.409       .  A
C1543      C1544   1.402       .  A
C1543      F1548   1.357       .  S
C1544      C1545   1.405       .  A
C1544      H1549   1.083       .  S
C1545      C1546   1.410       .  A
C1546      F1550   1.358       .  S
C1547      C1552   1.403       .  A
C1547      C1556   1.398       .  A
C1552      C1553   1.397       .  A
C1552      F1557   1.357       .  S
C1553      C1554   1.415       .  A
C1553      H1558   1.083       .  S
C1554      C1555   1.427       .  A
C1555      C1556   1.397       .  A
C1555      F1559   1.354       .  S
C1556      H1560   1.084       .  S
C1561      C1562   1.402       .  A
C1561      C1566   1.394       .  A
C1561      H1571   1.084       .  S
C1562      C1567   1.487       .  S
C1562      C1563   1.408       .  A
C1563      C1564   1.408       .  A
C1563      F1568   1.357       .  S
C1564      C1565   1.407       .  A
C1564      H1569   1.083       .  S
C1565      C1566   1.410       .  A
C1566      F1570   1.358       .  S
C1567      C1572   1.405       .  A
C1567      C1576   1.397       .  A
C1572      C1573   1.409       .  A
C1572      F1577   1.357       .  S
C1573      C1574   1.418       .  A
C1573      H1578   1.079       .  S
C1574      C1575   1.422       .  A
C1575      C1576   1.392       .  A
C1575      F1579   1.356       .  S
C1576      H1580   1.084       .  S
C1581      C1582   1.399       .  A
C1581      C1586   1.401       .  A
C1581      H1591   1.083       .  S
C1582      C1587   1.486       .  S
C1582      C1583   1.403       .  A
C1583      C1584   1.406       .  A
C1583      F1588   1.357       .  S
C1584      C1585   1.419       .  A
C1584      H1589   1.080       .  S
C1585      C1586   1.419       .  A
C1586      F1590   1.355       .  S
C1587      C1592   1.402       .  A
C1587      C1596   1.398       .  A
C1592      C1593   1.405       .  A
C1592      F1597   1.357       .  S
C1593      C1594   1.418       .  A
C1593      H1598   1.083       .  S
C1594      C1595   1.426       .  A
C1595      C1596   1.401       .  A
C1595      F1599   1.355       .  S
C1596      H1600   1.084       .  S
