geometry optimzed in LAMMPS
_audit_creation_date              2020-11-30 
_audit_creation_method            'lammps2cif' 
_symmetry_space_group_name_H-M    'P1' 
_symmetry_Int_Tables_number       1 
_symmetry_cell_setting            triclinic 
loop_ 
_symmetry_equiv_pos_as_xyz 
  x,y,z 
_cell_length_a                    44.59760142 
_cell_length_b                    45.7610233804488 
_cell_length_c                    41.33368583665924 
_cell_angle_alpha                 89.86932135490595 
_cell_angle_beta                  90.02901624946601 
_cell_angle_gamma                 119.54672961020185 
loop_ 
_atom_site_label 
_atom_site_type_symbol 
_atom_site_fract_x 
_atom_site_fract_y 
_atom_site_fract_z 
_atom_site_charge 
O1          O  0.48335091  0.44659051  0.03201234    -0.70200
O2          O  0.54586722  0.50914671  0.47205500    -0.70500
O3          O  0.54464442  0.50397265  0.03686869    -0.70300
O4          O  0.48602588  0.45113170  0.46794652    -0.70300
O5          O  0.45890696  0.47953512  0.46955098    -0.70300
O6          O  0.51687381  0.53165415  0.04018079    -0.70300
O7          O  0.51856660  0.53724627  0.47534430    -0.70200
O8          O  0.45615308  0.47491109  0.03337689    -0.70400
V9          V  0.51504350  0.47895744  0.00206673     1.35200
V10         V  0.48730037  0.50449177  0.50470429     1.35200
C11         C  0.45823301  0.44956214  0.04233305     0.79000
C12         C  0.54263313  0.53391087  0.46300444     0.79100
C13         C  0.54052081  0.52644465  0.05059216     0.78900
C14         C  0.46271784  0.45648007  0.45680929     0.78900
O15         O  0.95716748  0.47170409  0.46719887    -0.70200
O16         O  0.95577931  0.52770420  0.03381014    -0.70500
O17         O  0.95643960  0.53014498  0.46863186    -0.70300
O18         O  0.95765072  0.46974825  0.03193107    -0.70300
O19         O  0.01348923  0.49730429  0.02951757    -0.70300
O20         O  0.01236489  0.55867077  0.46891008    -0.70300
O21         O  0.01162500  0.55492451  0.03288165    -0.70200
O22         O  0.01298793  0.50037293  0.46447980    -0.70400
V23         V  0.95670288  0.49963143  0.00029846     1.35200
V24         V  0.01038905  0.52659763  0.99880257     1.35200
C25         C  0.98485726  0.47639566  0.45418080     0.79000
C26         C  0.98382591  0.55119183  0.04481112     0.79100
C27         C  0.98406993  0.55485433  0.45835422     0.78900
C28         C  0.98631666  0.47357354  0.04160554     0.78900
O29         O  0.46781450  0.02161461  0.46747055    -0.70200
O30         O  0.52912343  0.01923722  0.03119836    -0.70500
O31         O  0.52693151  0.01962468  0.46506222    -0.70300
O32         O  0.47063538  0.02245497  0.03301942    -0.70300
O33         O  0.43963270  0.96816267  0.03186472    -0.70300
O34         O  0.49915180  0.96521587  0.46672060    -0.70300
O35         O  0.49817714  0.96493599  0.03224139    -0.70200
O36         O  0.44014888  0.96704059  0.46642759    -0.70400
V37         V  0.49844607  0.02002092  0.99971178     1.35200
V38         V  0.46988880  0.96771586  0.99957642     1.35200
C39         C  0.44383473  0.99456899  0.45599138     0.79000
C40         C  0.52371124  0.99141866  0.04276739     0.79100
C41         C  0.52282064  0.99201712  0.45433334     0.78900
C42         C  0.44506011  0.99591761  0.04352974     0.78900
C43         C  0.03332031  0.76596194  0.25008008     0.88000
C44         C  0.03165330  0.74428551  0.27928324    -0.52200
C45         C  0.00382305  0.71266628  0.27937539     0.10900
C46         C  0.97934169  0.70558902  0.25056553     0.21900
C47         C  0.03046660  0.74455937  0.22041092    -0.52900
C48         C  0.00231249  0.71298439  0.22038391     0.11100
C49         C  0.99838711  0.76540304  0.25182706    -0.52500
C50         C  0.97041573  0.73392725  0.25168459     0.11600
H51         H  0.05072248  0.75323741  0.29849628     0.16100
H52         H  0.95618450  0.68022574  0.25092681     0.01900
H53         H  0.04996384  0.75349942  0.20159369     0.16400
H54         H  0.99506586  0.78705329  0.25488923     0.16200
C55         C  0.94832475  0.26684913  0.24886515     0.88000
C56         C  0.94754807  0.28994160  0.27553919    -0.52200
C57         C  0.97600216  0.32107981  0.27656165     0.10900
C58         C  0.00269315  0.32699905  0.25004959     0.21900
C59         C  0.95344382  0.28764142  0.21788963    -0.52900
C60         C  0.98185192  0.31905460  0.21830379     0.11100
C61         C  0.98239712  0.26697513  0.25361824    -0.52500
C62         C  0.01090654  0.29814975  0.25428779     0.11600
H63         H  0.92580258  0.28317331  0.29161739     0.16100
H64         H  0.02575083  0.35243841  0.25068722     0.01900
H65         H  0.93499993  0.27925258  0.19819999     0.16400
H66         H  0.98382252  0.24399746  0.25570432     0.16200
C67         C  0.24102718  0.30225167  0.25341647     0.88000
C68         C  0.26777496  0.32520602  0.27864580    -0.52200
C69         C  0.29861447  0.32580765  0.27704449     0.10900
C70         C  0.30058061  0.30420242  0.24968842     0.21900
C71         C  0.26024737  0.31627951  0.22108162    -0.52900
C72         C  0.29125910  0.31708695  0.21897895     0.11100
C73         C  0.23886786  0.26787998  0.25740352    -0.52500
C74         C  0.26992123  0.26878416  0.25531265     0.11600
H75         H  0.26359493  0.34075449  0.29573205     0.16100
H76         H  0.32581367  0.30496296  0.24837069     0.01900
H77         H  0.25116351  0.32648524  0.20214979     0.16400
H78         H  0.21462828  0.24469871  0.26065097     0.16200
C79         C  0.28310634  0.05362061  0.25159433     0.88000
C80         C  0.30336857  0.04998933  0.28000075    -0.52200
C81         C  0.30692337  0.02206623  0.27852948     0.10900
C82         C  0.28915819  0.99956883  0.24923059     0.21900
C83         C  0.30140439  0.05102832  0.22110330    -0.52900
C84         C  0.30464419  0.02283499  0.21981390     0.11100
C85         C  0.24858155  0.02031854  0.25295419    -0.52500
C86         C  0.25179119  0.99226491  0.25118150     0.11600
H87         H  0.31372705  0.06773177  0.29990824     0.16100
H88         H  0.29144673  0.97650929  0.24833663     0.01900
H89         H  0.31174057  0.07044692  0.20256480     0.16400
H90         H  0.22337656  0.01820394  0.25663960     0.16200
C91         C  0.73637386  0.03164293  0.24922229     0.88000
C92         C  0.71378271  0.02795194  0.21980854    -0.52200
C93         C  0.68267137  0.99901072  0.21922281     0.10900
C94         C  0.67654863  0.97619906  0.24875076     0.21900
C95         C  0.71349058  0.02723968  0.27877006    -0.52900
C96         C  0.68216086  0.99877791  0.27823257     0.11100
C97         C  0.73883885  0.99909656  0.24950652    -0.52500
C98         C  0.70758311  0.97010733  0.24888684     0.11600
H99         H  0.72170153  0.04711678  0.20123548     0.16100
H100        H  0.65121318  0.95276493  0.24851444     0.01900
H101        H  0.72088445  0.04554973  0.29806749     0.16400
H102        H  0.76243897  0.99814936  0.25177399     0.16200
C103        C  0.69878637  0.74312624  0.24842753     0.88000
C104        C  0.68269494  0.71833962  0.21991226    -0.52200
C105        C  0.68371870  0.68914246  0.22328782     0.10900
C106        C  0.70027340  0.68681622  0.25511619     0.21900
C107        C  0.67867157  0.72183895  0.27789257    -0.52900
C108        C  0.67954220  0.69262304  0.28154791     0.11100
C109        C  0.73516655  0.74767756  0.25190093    -0.52500
C110        C  0.73628344  0.71846154  0.25538595     0.11600
H111        H  0.66891756  0.72129055  0.19976069     0.16100
H112        H  0.70044571  0.66280512  0.25816859     0.01900
H113        H  0.66449755  0.72911609  0.29437031     0.16400
H114        H  0.75823591  0.77224131  0.25058782     0.16200
C115        C  0.69105150  0.82033509  0.21980579     0.14200
C116        C  0.69989289  0.83969867  0.24806218     0.01200
C117        C  0.70934517  0.82821105  0.27560720     0.16100
C118        C  0.70946832  0.79764159  0.27502731     0.25600
C119        C  0.69938042  0.77715109  0.24701208    -0.40800
C120        C  0.69132650  0.78987244  0.21894824     0.32600
C121        C  0.70115603  0.87278261  0.24807780     0.01200
F122        F  0.71941543  0.84710027  0.30291641    -0.13100
F123        F  0.68570740  0.77464061  0.18983044    -0.13600
C124        C  0.68001449  0.87898482  0.26893746     0.16200
C125        C  0.68148024  0.91033448  0.26880245     0.25600
C126        C  0.70448400  0.93617916  0.24811595    -0.40700
C127        C  0.72512869  0.92965402  0.22685123     0.32500
C128        C  0.72352438  0.89834121  0.22689438     0.14200
F129        F  0.65772287  0.85455005  0.28924391    -0.13100
F130        F  0.74647540  0.95345500  0.20551843    -0.13600
F131        F  0.66103602  0.91561625  0.28949598    -0.15900
F132        F  0.74429156  0.89311665  0.20652788    -0.14400
F133        F  0.68233687  0.83116242  0.19263552    -0.14400
F134        F  0.71991610  0.78821222  0.30203529    -0.15900
C135        C  0.25068497  0.11793731  0.24639179     0.14200
C136        C  0.28001692  0.14758295  0.25592878     0.01200
C137        C  0.31066888  0.14711591  0.26206179     0.16100
C138        C  0.31162071  0.11706606  0.25989210     0.25600
C139        C  0.28154578  0.08641750  0.25237068    -0.40800
C140        C  0.25154504  0.08791064  0.24378313     0.32600
C141        C  0.27901260  0.17937122  0.25714299     0.01200
F142        F  0.33976198  0.17586408  0.27014781    -0.13100
F143        F  0.22371796  0.06142892  0.23037897    -0.13600
C144        C  0.25882407  0.18403442  0.28040897     0.16200
C145        C  0.25620554  0.21329819  0.28021328     0.25600
C146        C  0.27354817  0.23822316  0.25653036    -0.40700
C147        C  0.29406794  0.23357685  0.23349690     0.32500
C148        C  0.29682255  0.20443466  0.23388268     0.14200
F149        F  0.24170191  0.16020436  0.30332124    -0.13100
F150        F  0.31022513  0.25649407  0.20963387    -0.13600
F151        F  0.23710538  0.21745893  0.30341558    -0.15900
F152        F  0.31586017  0.20005110  0.21076389    -0.14400
F153        F  0.22143507  0.11840192  0.23817016    -0.14400
F154        F  0.34230664  0.11820221  0.26466682    -0.15900
C155        C  0.08370839  0.28383768  0.28195355     0.14200
C156        C  0.10967531  0.30269731  0.25921554     0.01200
C157        C  0.10400630  0.32264372  0.23668315     0.16100
C158        C  0.07246089  0.32247678  0.23593837     0.25600
C159        C  0.04610188  0.30255845  0.25787710    -0.40800
C160        C  0.05246808  0.28408195  0.28149473     0.32600
C161        C  0.14212970  0.30082572  0.25833693     0.01200
F162        F  0.12890408  0.34195768  0.21504062    -0.13100
F163        F  0.02807829  0.26572724  0.30391863    -0.13600
C164        C  0.15275399  0.29225998  0.22957982     0.16200
C165        C  0.18374319  0.29146223  0.22832047     0.25600
C166        C  0.20552060  0.30005703  0.25567983    -0.40700
C167        C  0.19250284  0.30458906  0.28537646     0.32500
C168        C  0.16196454  0.30617934  0.28639689     0.14200
F169        F  0.13264218  0.28384730  0.20273924    -0.13100
F170        F  0.20819711  0.30600432  0.31391366    -0.13600
F171        F  0.19180316  0.28133728  0.20040424    -0.15900
F172        F  0.15199171  0.31327925  0.31497642    -0.14400
F173        F  0.08787366  0.26389176  0.30375998    -0.14400
F174        F  0.06709016  0.34037835  0.21267323    -0.15900
C175        C  0.83168297  0.10215294  0.23874217     0.14200
C176        C  0.82935952  0.13075515  0.24666407     0.01200
C177        C  0.79706231  0.12707633  0.25419707     0.16100
C178        C  0.76764386  0.09532427  0.25445340     0.25600
C179        C  0.76976225  0.06590357  0.24847819    -0.40800
C180        C  0.80232105  0.07014667  0.23924850     0.32600
C181        C  0.86045980  0.16456896  0.24723493     0.01200
F182        F  0.79388152  0.15450024  0.26071396    -0.13100
F183        F  0.80610144  0.04416678  0.22869520    -0.13600
C184        C  0.87998927  0.17887337  0.21915845     0.16200
C185        C  0.90849417  0.21140010  0.21979124     0.25600
C186        C  0.91752877  0.23090254  0.24840508    -0.40700
C187        C  0.89961044  0.21480111  0.27715147     0.32500
C188        C  0.87089116  0.18257775  0.27627487     0.14200
F189        F  0.87123619  0.16145362  0.19095709    -0.13100
F190        F  0.91066503  0.22909004  0.30661866    -0.13600
F191        F  0.92770732  0.22326727  0.19248602    -0.15900
F192        F  0.85371378  0.16845771  0.30418432    -0.14400
F193        F  0.86257517  0.10519698  0.23052375    -0.14400
F194        F  0.73677920  0.09354946  0.26003887    -0.15900
C195        C  0.12952146  0.83217224  0.25474665     0.14200
C196        C  0.12938692  0.86224155  0.24907293     0.01200
C197        C  0.09825184  0.86132293  0.24193352     0.16100
C198        C  0.06728487  0.83077289  0.24135015     0.25600
C199        C  0.06661176  0.80023938  0.24914149    -0.40800
C200        C  0.09867854  0.80152881  0.25436178     0.32600
C201        C  0.16174370  0.89472085  0.25038980     0.01200
F202        F  0.09799670  0.89015671  0.23463715    -0.13100
F203        F  0.10032940  0.77297143  0.25901287    -0.13600
C204        C  0.18640238  0.90412234  0.22563421     0.16200
C205        C  0.21633233  0.93558812  0.22637832     0.25600
C206        C  0.22174976  0.95801654  0.25177443    -0.40700
C207        C  0.19745807  0.94823124  0.27690459     0.32500
C208        C  0.16763370  0.91680378  0.27618182     0.14200
F209        F  0.18088523  0.88326819  0.20026809    -0.13100
F210        F  0.20276850  0.96909050  0.30222365    -0.13600
F211        F  0.23924463  0.94475182  0.20161307    -0.15900
F212        F  0.14438996  0.90786158  0.30061972    -0.14400
F213        F  0.15959660  0.83255323  0.26105775    -0.14400
F214        F  0.03891618  0.83160860  0.23100487    -0.15900
C215        C  0.82944503  0.74334115  0.27464002     0.14200
C216        C  0.83369558  0.71893272  0.25773208     0.01200
C217        C  0.80512163  0.69344916  0.24125890     0.16100
C218        C  0.77353987  0.69315782  0.24062117     0.25600
C219        C  0.76936772  0.71770047  0.25737099    -0.40800
C220        C  0.79756504  0.74236615  0.27495930     0.32600
C221        C  0.86809157  0.72078867  0.25645927     0.01200
F222        F  0.80774305  0.66874369  0.22561820    -0.13100
F223        F  0.79435515  0.76562062  0.29267976    -0.13600
C224        C  0.88732460  0.72527721  0.28494558     0.16200
C225        C  0.92067379  0.72966236  0.28338172     0.25600
C226        C  0.93478578  0.72805722  0.25356909    -0.40700
C227        C  0.91542775  0.72245783  0.22525644     0.32500
C228        C  0.88261984  0.71942428  0.22655513     0.14200
F229        F  0.87383407  0.72536584  0.31435858    -0.13100
F230        F  0.92887818  0.72113929  0.19618583    -0.13600
F231        F  0.93939732  0.73591328  0.31095494    -0.15900
F232        F  0.86568813  0.71651565  0.19840301    -0.14400
F233        F  0.85649687  0.76892957  0.29009078    -0.14400
F234        F  0.74757949  0.66961474  0.22238863    -0.15900
C235        C  0.55845160  0.95783010  0.10839451     0.14200
C236        C  0.58961963  0.98656774  0.11639193     0.01200
C237        C  0.59914086  0.01686452  0.10003106     0.16100
C238        C  0.57790185  0.01847232  0.07605883     0.25600
C239        C  0.54649952  0.98974824  0.06801276    -0.40800
C240        C  0.53706417  0.95935394  0.08447986     0.32600
C241        C  0.61216356  0.98543424  0.14210587     0.01200
F242        F  0.62884497  0.04519140  0.10773655    -0.13100
F243        F  0.50696123  0.93104344  0.07776146    -0.13600
C244        C  0.64674400  0.99543806  0.13531008     0.16200
C245        C  0.66924917  0.99841211  0.16020370     0.25600
C246        C  0.65757942  0.99132114  0.19244874    -0.40700
C247        C  0.62231724  0.97886415  0.19884219     0.32500
C248        C  0.59987714  0.97625752  0.17390707     0.14200
F249        F  0.65882932  0.00277161  0.10450955    -0.13100
F250        F  0.60971247  0.97077781  0.22936081    -0.13600
F251        F  0.70255488  0.00829240  0.15272695    -0.15900
F252        F  0.56651654  0.96640229  0.18113177    -0.14400
F253        F  0.54888230  0.92812964  0.12350457    -0.14400
F254        F  0.58829795  0.04821134  0.06070694    -0.15900
C255        C  0.61037505  0.00455386  0.32059291     0.14200
C256        C  0.60871394  0.98895760  0.35040443     0.01200
C257        C  0.63003778  0.97475501  0.35557949     0.16100
C258        C  0.65322912  0.97687222  0.33159795     0.25600
C259        C  0.65524263  0.99303194  0.30214240    -0.40800
C260        C  0.63378155  0.00694644  0.29683190     0.32600
C261        C  0.58644803  0.98950618  0.37676852     0.01200
F262        F  0.62955679  0.96028788  0.38443000    -0.13100
F263        F  0.63659254  0.02416727  0.26916364    -0.13600
C264        C  0.56064357  0.95950621  0.39050564     0.16200
C265        C  0.54005880  0.96024442  0.41571591     0.25600
C266        C  0.54490232  0.99112911  0.42776724    -0.40700
C267        C  0.57086863  0.02117966  0.41378694     0.32500
C268        C  0.59135962  0.02030728  0.38861915     0.14200
F269        F  0.55500403  0.92940017  0.37912997    -0.13100
F270        F  0.57666430  0.05159033  0.42439799    -0.13600
F271        F  0.51532104  0.93060358  0.42815691    -0.15900
F272        F  0.61655223  0.04970979  0.37615107    -0.14400
F273        F  0.58972568  0.01801180  0.31475382    -0.14400
F274        F  0.67479985  0.96453344  0.33766595    -0.15900
C275        C  0.38957650  0.02064364  0.40706620     0.14200
C276        C  0.38083893  0.99908037  0.38031140     0.01200
C277        C  0.39133300  0.97478306  0.37937309     0.16100
C278        C  0.41117244  0.97270983  0.40452714     0.25600
C279        C  0.42102208  0.99517310  0.43068666    -0.40800
C280        C  0.40976099  0.01889130  0.43196784     0.32600
C281        C  0.36258109  0.00354781  0.35266948     0.01200
F282        F  0.38362026  0.95409006  0.35347969    -0.13100
F283        F  0.41806025  0.04015735  0.45747316    -0.13600
C284        C  0.37796541  0.03418502  0.33580154     0.16200
C285        C  0.36008446  0.03983500  0.31116000     0.25600
C286        C  0.32656872  0.01485398  0.30291470    -0.40700
C287        C  0.31167288  0.98363338  0.31881732     0.32500
C288        C  0.32958240  0.97803133  0.34367571     0.14200
F289        F  0.41035108  0.05868803  0.34336151    -0.13100
F290        F  0.27922575  0.95922477  0.31137596    -0.13600
F291        F  0.37556542  0.06969551  0.29521257    -0.15900
F292        F  0.31425478  0.94828114  0.35980288    -0.14400
F293        F  0.37868829  0.04356576  0.40888566    -0.14400
F294        F  0.42223013  0.94992836  0.40253500    -0.15900
C295        C  0.37616576  0.97048942  0.10862921     0.14200
C296        C  0.37933760  0.00165759  0.11677237     0.01200
C297        C  0.40376418  0.03071008  0.10068692     0.16100
C298        C  0.42502456  0.02882574  0.07696917     0.25600
C299        C  0.42215542  0.99764032  0.06865689    -0.40800
C300        C  0.39724789  0.96841581  0.08466180     0.32600
C301        C  0.35815465  0.00444326  0.14278042     0.01200
F302        F  0.40753349  0.06115248  0.10851653    -0.13100
F303        F  0.39352234  0.93785628  0.07751867    -0.13600
C304        C  0.36314093  0.99820933  0.17503477     0.16200
C305        C  0.34569990  0.00409601  0.20006070     0.25600
C306        C  0.32259450  0.01592564  0.19316100    -0.40700
C307        C  0.31701178  0.02132374  0.16070266     0.32500
C308        C  0.33477876  0.01577016  0.13575616     0.14200
F309        F  0.38605692  0.98778077  0.18236867    -0.13100
F310        F  0.29406932  0.03161926  0.15306389    -0.13600
F311        F  0.35278020  0.99978228  0.23108422    -0.15900
F312        F  0.32927163  0.02153142  0.10466255    -0.14400
F313        F  0.35250291  0.94204653  0.12380567    -0.14400
F314        F  0.44834739  0.05769057  0.06215146    -0.15900
C315        C  0.97898611  0.63087660  0.17731586     0.14200
C316        C  0.98728472  0.64158018  0.14505717     0.01200
C317        C  0.99890263  0.67541752  0.13741884     0.16100
C318        C  0.00287016  0.69834890  0.16165166     0.25600
C319        C  0.99576868  0.68803200  0.19426020    -0.40800
C320        C  0.98346202  0.65389258  0.20174283     0.32600
C321        C  0.98593982  0.61808959  0.11963388     0.01200
F322        F  0.00649048  0.68628600  0.10633381    -0.13100
F323        F  0.97749893  0.64295794  0.23286083    -0.13600
C324        C  0.95478985  0.58931436  0.11149173     0.16200
C325        C  0.95392071  0.56751132  0.08722664     0.25600
C326        C  0.98434175  0.57400593  0.07074750    -0.40700
C327        C  0.01550032  0.60290979  0.07919135     0.32500
C328        C  0.01621946  0.62459632  0.10331934     0.14200
F329        F  0.92507875  0.58263542  0.12667752    -0.13100
F330        F  0.04546033  0.61057170  0.06394318    -0.13600
F331        F  0.92327220  0.54005137  0.08001659    -0.15900
F332        F  0.04677214  0.65191393  0.11109577    -0.14400
F333        F  0.96801239  0.59837089  0.18539273    -0.14400
F334        F  0.01341821  0.73063192  0.15303523    -0.15900
C335        C  0.96365535  0.65119660  0.34877912     0.14200
C336        C  0.99065499  0.64520678  0.35746030     0.01200
C337        C  0.02129265  0.66024558  0.33924778     0.16100
C338        C  0.02525716  0.68167419  0.31349318     0.25600
C339        C  0.99845797  0.68804286  0.30512978    -0.40800
C340        C  0.96734795  0.67203405  0.32247807     0.32600
C341        C  0.98693511  0.62290207  0.38505968     0.01200
F342        F  0.04725666  0.65381212  0.34615843    -0.13100
F343        F  0.94093435  0.67742775  0.31471910    -0.13600
C344        C  0.95970260  0.58954324  0.38588402     0.16200
C345        C  0.95792322  0.56767600  0.41048548     0.25600
C346        C  0.98370830  0.57865535  0.43433990    -0.40700
C347        C  0.01021645  0.61239707  0.43418314     0.32500
C348        C  0.01163915  0.63436924  0.40992678     0.14200
F349        F  0.93571414  0.57766138  0.36199125    -0.13100
F350        F  0.03474854  0.62418362  0.45761033    -0.13600
F351        F  0.93198437  0.53530792  0.40995662    -0.15900
F352        F  0.03732307  0.66687417  0.41059270    -0.14400
F353        F  0.93408113  0.63763401  0.36633931    -0.14400
F354        F  0.05511492  0.69579773  0.29632020    -0.15900
C355        C  0.00924865  0.38342651  0.34578421     0.14200
C356        C  0.98199274  0.39027141  0.35004005     0.01200
C357        C  0.95372153  0.37565129  0.32882555     0.16100
C358        C  0.95236616  0.35404570  0.30427423     0.25600
C359        C  0.97927669  0.34666048  0.30042575    -0.40800
C360        C  0.00796683  0.36190435  0.32105483     0.32600
C361        C  0.98280556  0.41231866  0.37676458     0.01200
F362        F  0.92743182  0.38241325  0.33183259    -0.13100
F363        F  0.03392479  0.35464481  0.31829178    -0.13600
C364        C  0.00967767  0.44573645  0.37881571     0.16200
C365        C  0.01048100  0.46653382  0.40402104     0.25600
C366        C  0.98423675  0.45435973  0.42758335    -0.40700
C367        C  0.95719131  0.42092130  0.42533900     0.32500
C368        C  0.95658075  0.40009662  0.40026915     0.14200
F369        F  0.03475826  0.45847630  0.35590390    -0.13100
F370        F  0.93170920  0.40806075  0.44787241    -0.13600
F371        F  0.03642984  0.49889332  0.40479250    -0.15900
F372        F  0.93065991  0.36771749  0.39929387    -0.14400
F373        F  0.03648030  0.39657468  0.36639209    -0.14400
F374        F  0.92474765  0.34036977  0.28411309    -0.15900
C375        C  0.98820916  0.35601587  0.13459610     0.14200
C376        C  0.99238516  0.38776839  0.14193979     0.01200
C377        C  0.99605420  0.39796321  0.17444814     0.16100
C378        C  0.99422320  0.37622504  0.19929610     0.25600
C379        C  0.98863628  0.34387185  0.19202544    -0.40800
C380        C  0.98637463  0.33428223  0.15937517     0.32600
C381        C  0.99124193  0.40952369  0.11581729     0.01200
F382        F  0.99967043  0.42835482  0.18221091    -0.13100
F383        F  0.98207683  0.30366764  0.15146815    -0.13600
C384        C  0.96125880  0.39864196  0.09713341     0.16200
C385        C  0.95965842  0.41929033  0.07292544     0.25600
C386        C  0.98816397  0.45124503  0.06675274    -0.40700
C387        C  0.01836256  0.46190078  0.08529198     0.32500
C388        C  0.01977223  0.44129510  0.10967351     0.14200
F389        F  0.93319738  0.36816097  0.10279019    -0.13100
F390        F  0.04637184  0.49260656  0.08037606    -0.13600
F391        F  0.93027943  0.40778361  0.05532421    -0.15900
F392        F  0.04914702  0.45227725  0.12717478    -0.14400
F393        F  0.98556230  0.34594930  0.10334371    -0.14400
F394        F  0.99574788  0.38609931  0.23047435    -0.15900
C395        C  0.65646166  0.64331707  0.14314777     0.14200
C396        C  0.62937600  0.61182980  0.15272630     0.01200
C397        C  0.62245669  0.60481895  0.18588357     0.16100
C398        C  0.64147534  0.62938592  0.20906859     0.25600
C399        C  0.66730872  0.66150784  0.19937067    -0.40800
C400        C  0.67512584  0.66803084  0.16625871     0.32600
C401        C  0.60619413  0.58784904  0.12803645     0.00600
F402        F  0.59648478  0.57451346  0.19569368    -0.13100
F403        F  0.70032189  0.69868417  0.15626695    -0.13600
C404        C  0.61808836  0.57228155  0.10627891     0.16200
C405        C  0.59650787  0.55150073  0.08161062     0.25600
C406        C  0.56282511  0.54646367  0.07795094    -0.40700
C407        C  0.55091545  0.56171243  0.10023270     0.32500
C408        C  0.57233096  0.58203167  0.12505386     0.14200
F409        F  0.65071257  0.57746677  0.10878998    -0.13100
F410        F  0.51843146  0.55696487  0.09808080    -0.13600
F411        F  0.60903487  0.53733078  0.06065390    -0.15900
F412        F  0.56034922  0.59700114  0.14565586    -0.14400
F413        F  0.66357179  0.65072931  0.11127357    -0.14400
F414        F  0.63309979  0.62246602  0.24080153    -0.15900
C415        C  0.60459564  0.57094270  0.39195723     0.14200
C416        C  0.60435332  0.60118473  0.38640890     0.01200
C417        C  0.58518914  0.60992894  0.40735603     0.16100
C418        C  0.56576471  0.58845068  0.43253883     0.25600
C419        C  0.56547570  0.55786055  0.43784054    -0.40800
C420        C  0.58570200  0.54969935  0.41758818     0.32600
C421        C  0.62349355  0.62340718  0.35860888     0.01200
F422        F  0.58535918  0.63949624  0.40355068    -0.13100
F423        F  0.58631351  0.52056195  0.42175872    -0.13600
C424        C  0.60660229  0.63424281  0.33690163     0.16200
C425        C  0.62482060  0.65654741  0.31181005     0.25600
C426        C  0.66013859  0.66795278  0.30742800    -0.40700
C427        C  0.67680574  0.65615660  0.32816741     0.32500
C428        C  0.65877303  0.63441736  0.35381048     0.14200
F429        F  0.57227337  0.62293598  0.33976926    -0.13100
F430        F  0.71089175  0.66675548  0.32439572    -0.13600
F431        F  0.60777525  0.66657109  0.29135773    -0.15900
F432        F  0.67610437  0.62508789  0.37462164    -0.14400
F433        F  0.62209797  0.56126397  0.37179786    -0.14400
F434        F  0.54720782  0.59775726  0.45171304    -0.15900
C435        C  0.38662740  0.41544888  0.39951878     0.14200
C436        C  0.39825786  0.40087260  0.37630306     0.01200
C437        C  0.43094183  0.40372849  0.38031461     0.16100
C438        C  0.45166911  0.42109862  0.40685946     0.25600
C439        C  0.44036972  0.43652331  0.42954944    -0.40800
C440        C  0.40751827  0.43330962  0.42562163     0.32600
C441        C  0.37594407  0.38267823  0.34822967     0.01200
F442        F  0.44322587  0.39049474  0.35806053    -0.13100
F443        F  0.39518922  0.44691085  0.44744893    -0.13600
C444        C  0.36181188  0.39823881  0.32890235     0.16200
C445        C  0.33754575  0.38006038  0.30500467     0.25600
C446        C  0.32733986  0.34611105  0.29955022    -0.40700
C447        C  0.34302499  0.33109565  0.31734446     0.32500
C448        C  0.36690447  0.34912236  0.34171202     0.14200
F449        F  0.37118357  0.43102517  0.33348916    -0.13100
F450        F  0.33365695  0.29835132  0.31252824    -0.13600
F451        F  0.32380979  0.39559680  0.28727696    -0.15900
F452        F  0.37970323  0.33318804  0.36009949    -0.14400
F453        F  0.35462581  0.41192034  0.39723381    -0.14400
F454        F  0.48321006  0.42367426  0.40975940    -0.15900
C455        C  0.37496786  0.40069865  0.08957728     0.14200
C456        C  0.38286239  0.38106402  0.11031505     0.01200
C457        C  0.41460365  0.38180552  0.10658602     0.16100
C458        C  0.43884673  0.40328642  0.08387617     0.25600
C459        C  0.43171105  0.42436108  0.06433902    -0.40800
C460        C  0.39903147  0.42198869  0.06676657     0.32600
C461        C  0.35953175  0.36249389  0.13770156     0.01200
F462        F  0.42242583  0.36220621  0.12551997    -0.13100
F463        F  0.39038940  0.44062941  0.04729750    -0.13600
C464        C  0.32446964  0.33926284  0.13256988     0.16200
C465        C  0.30230027  0.32403579  0.15890564     0.25600
C466        C  0.31483612  0.33170185  0.19083162    -0.40700
C467        C  0.35001154  0.35441057  0.19583862     0.32500
C468        C  0.37204713  0.36970724  0.16959012     0.14200
F469        F  0.31169434  0.33131575  0.10206182    -0.13100
F470        F  0.36286638  0.36331475  0.22620990    -0.13600
F471        F  0.26864755  0.30157708  0.15318141    -0.15900
F472        F  0.40543068  0.39289861  0.17542878    -0.14400
F473        F  0.34457924  0.40058671  0.09245244    -0.14400
F474        F  0.46981254  0.40445946  0.08206203    -0.15900
O475        O  0.48319956  0.44568457  0.53301174    -0.70200
O476        O  0.54733774  0.51006492  0.97175362    -0.70500
O477        O  0.54358447  0.50402765  0.53724350    -0.70300
O478        O  0.48666170  0.45295926  0.96714234    -0.70300
O479        O  0.46059029  0.48233701  0.96923607    -0.70300
O480        O  0.51452257  0.53046149  0.54011071    -0.70300
O481        O  0.52116166  0.53919863  0.97546810    -0.70200
O482        O  0.45467644  0.47274557  0.53379659    -0.70400
V483        V  0.51418344  0.47802246  0.50267877     1.35200
V484        V  0.48931743  0.50651488  0.00455651     1.35200
C485        C  0.45771152  0.44806071  0.54324001     0.79000
C486        C  0.54487609  0.53535662  0.96302651     0.79100
C487        C  0.53874159  0.52621593  0.55065574     0.78900
C488        C  0.46372452  0.45897558  0.95627803     0.78900
O489        O  0.95544035  0.47050902  0.96688996    -0.70200
O490        O  0.95813908  0.52944746  0.53364290    -0.70500
O491        O  0.95376073  0.52854643  0.96869061    -0.70300
O492        O  0.95908317  0.47108706  0.53218834    -0.70300
O493        O  0.01492408  0.49769697  0.52962840    -0.70300
O494        O  0.00965931  0.55720178  0.96836966    -0.70300
O495        O  0.01399052  0.55579377  0.53342370    -0.70200
O496        O  0.01124962  0.49941997  0.96439008    -0.70400
V497        V  0.95876758  0.50110564  0.50039176     1.35200
V498        V  0.01247498  0.52753132  0.49911392     1.35200
C499        C  0.98325477  0.47536623  0.95397736     0.79000
C500        C  0.98622576  0.55249951  0.54499853     0.79100
C501        C  0.98121989  0.55325777  0.95809563     0.78900
C502        C  0.98752763  0.47431796  0.54177787     0.78900
O503        O  0.46878001  0.02272682  0.96835149    -0.70200
O504        O  0.52919079  0.01996553  0.53010258    -0.70500
O505        O  0.52737395  0.01983792  0.96618460    -0.70300
O506        O  0.47014653  0.02205752  0.53214756    -0.70300
O507        O  0.43989155  0.96770386  0.53152151    -0.70300
O508        O  0.49894889  0.96542063  0.96717365    -0.70300
O509        O  0.49896437  0.96562009  0.53175623    -0.70200
O510        O  0.44048280  0.96817763  0.96679880    -0.70400
V511        V  0.49799820  0.01977660  0.49870451     1.35200
V512        V  0.47010699  0.96744196  0.49913325     1.35200
C513        C  0.44468772  0.99594548  0.95652608     0.79000
C514        C  0.52424364  0.99245956  0.54203537     0.79100
C515        C  0.52290809  0.99225247  0.95508845     0.78900
C516        C  0.44501780  0.99538881  0.54307722     0.78900
C517        C  0.03307302  0.76496308  0.74922588     0.88000
C518        C  0.03130552  0.74313427  0.77845880    -0.52200
C519        C  0.00319185  0.71165039  0.77863145     0.10900
C520        C  0.97875709  0.70479536  0.74991030     0.21900
C521        C  0.02980215  0.74357945  0.71944543    -0.52900
C522        C  0.00164518  0.71218294  0.71984647     0.11100
C523        C  0.99832212  0.76475388  0.75120376    -0.52500
C524        C  0.97013587  0.73337532  0.75104881     0.11600
H525        H  0.05037339  0.75189133  0.79765923     0.16100
H526        H  0.95574151  0.67928227  0.75003378     0.01900
H527        H  0.04874968  0.75223263  0.70011979     0.16400
H528        H  0.99537710  0.78666541  0.75409497     0.16200
C529        C  0.94891037  0.26645920  0.74850996     0.88000
C530        C  0.94792671  0.28924560  0.77540983    -0.52200
C531        C  0.97617251  0.32053073  0.77648423     0.10900
C532        C  0.00285109  0.32684654  0.74984850     0.21900
C533        C  0.95367735  0.28732495  0.71771078    -0.52900
C534        C  0.98186455  0.31884912  0.71816576     0.11100
C535        C  0.98314221  0.26692631  0.75300276    -0.52500
C536        C  0.01144218  0.29821847  0.75385767     0.11600
H537        H  0.92618725  0.28213201  0.79160542     0.16100
H538        H  0.02571818  0.35239990  0.75055856     0.01900
H539        H  0.93509966  0.27886500  0.69806598     0.16400
H540        H  0.98480089  0.24405366  0.75486619     0.16200
C541        C  0.24108795  0.30179551  0.75364368     0.88000
C542        C  0.26732847  0.32478358  0.77915285    -0.52200
C543        C  0.29815407  0.32535298  0.77833870     0.10900
C544        C  0.30064916  0.30363543  0.75137746     0.21900
C545        C  0.26092572  0.31566530  0.72155515    -0.52900
C546        C  0.29190985  0.31638519  0.72030658     0.11100
C547        C  0.23874800  0.26738776  0.75805136    -0.52500
C548        C  0.26979739  0.26817600  0.75658293     0.11600
H549        H  0.26272924  0.34033943  0.79588582     0.16100
H550        H  0.32598965  0.30456142  0.75057416     0.01900
H551        H  0.25241355  0.32587188  0.70214862     0.16400
H552        H  0.21437621  0.24424469  0.76066041     0.16200
C553        C  0.28299998  0.05286278  0.75083875     0.88000
C554        C  0.30288154  0.04939917  0.77966629    -0.52200
C555        C  0.30638739  0.02143057  0.77872523     0.10900
C556        C  0.28876559  0.99862711  0.74955079     0.21900
C557        C  0.30154008  0.04988572  0.72073954    -0.52900
C558        C  0.30458312  0.02155032  0.71994908     0.11100
C559        C  0.24830445  0.01967308  0.75217856    -0.52500
C560        C  0.25140659  0.99147992  0.75095866     0.11600
H561        H  0.31311740  0.06730591  0.79943174     0.16100
H562        H  0.29091640  0.97547475  0.74913983     0.01900
H563        H  0.31209524  0.06912844  0.70206523     0.16400
H564        H  0.22341527  0.01786588  0.75513074     0.16200
C565        C  0.73634731  0.03259799  0.74947988     0.88000
C566        C  0.71410708  0.02899755  0.71985462    -0.52200
C567        C  0.68283222  0.00028845  0.71921855     0.10900
C568        C  0.67624253  0.97752128  0.74890560     0.21900
C569        C  0.71333712  0.02864615  0.77879544    -0.52900
C570        C  0.68186649  0.00035410  0.77820157     0.11100
C571        C  0.73838244  0.99992205  0.75028913    -0.52500
C572        C  0.70708942  0.97110315  0.74952546     0.11600
H573        H  0.72232472  0.04816478  0.70123398     0.16100
H574        H  0.65079892  0.95423972  0.74861633     0.01900
H575        H  0.72084226  0.04699001  0.79808809     0.16400
H576        H  0.76211693  0.99884722  0.75305960     0.16200
C577        C  0.69933290  0.74474311  0.74832383     0.88000
C578        C  0.68242700  0.72015193  0.71980815    -0.52200
C579        C  0.68340019  0.69089076  0.72249803     0.10900
C580        C  0.70069961  0.68826359  0.75371298     0.21900
C581        C  0.67987788  0.72331077  0.77795557    -0.52900
C582        C  0.68065382  0.69396992  0.78096067     0.11100
C583        C  0.73570393  0.74917382  0.75079424    -0.52500
C584        C  0.73676200  0.71988245  0.75358466     0.11600
H585        H  0.66803577  0.72324551  0.70033669     0.16100
H586        H  0.70088669  0.66419296  0.75611221     0.01900
H587        H  0.66615809  0.73056416  0.79500586     0.16400
H588        H  0.75880897  0.77371553  0.74947067     0.16200
C589        C  0.69167480  0.82209094  0.72052008     0.14200
C590        C  0.69994995  0.84100587  0.74903742     0.01200
C591        C  0.70936306  0.82936508  0.77649875     0.16100
C592        C  0.70981105  0.79895280  0.77560795     0.25600
C593        C  0.69996942  0.77877211  0.74738580    -0.40800
C594        C  0.69231946  0.79184071  0.71935671     0.32600
C595        C  0.70111744  0.87402122  0.74921083     0.01200
F596        F  0.71914574  0.84798451  0.80398263    -0.13100
F597        F  0.68775103  0.77727727  0.68997636    -0.13600
C598        C  0.67933878  0.87989303  0.76952093     0.16200
C599        C  0.68057286  0.91115585  0.76921379     0.25600
C600        C  0.70392112  0.93715615  0.74885569    -0.40700
C601        C  0.72518573  0.93091081  0.72814874     0.32500
C602        C  0.72389735  0.89977374  0.72844908     0.14200
F603        F  0.65667080  0.85523489  0.78941923    -0.13100
F604        F  0.74689583  0.95484494  0.70710785    -0.13600
F605        F  0.65959867  0.91620980  0.78942197    -0.15900
F606        F  0.74533784  0.89488182  0.70869435    -0.14400
F607        F  0.68333424  0.83325443  0.69335214    -0.14400
F608        F  0.72040080  0.78943144  0.80246005    -0.15900
C609        C  0.25052523  0.11694258  0.74305231     0.14200
C610        C  0.27918566  0.14650161  0.75385351     0.01200
C611        C  0.30968870  0.14619786  0.76123824     0.16100
C612        C  0.31102092  0.11632792  0.75933698     0.25600
C613        C  0.28140255  0.08565753  0.75092977    -0.40800
C614        C  0.25179604  0.08708784  0.74073796     0.32600
C615        C  0.27772909  0.17805472  0.75552280     0.01200
F616        F  0.33825071  0.17492477  0.77039141    -0.13100
F617        F  0.22483254  0.06065506  0.72624472    -0.13600
C618        C  0.25653350  0.18176392  0.77834833     0.16200
C619        C  0.25432016  0.21124267  0.77916285     0.25600
C620        C  0.27305756  0.23736035  0.75689915    -0.40700
C621        C  0.29431607  0.23349044  0.73410560     0.32500
C622        C  0.29670981  0.20415777  0.73354629     0.14200
F623        F  0.23814277  0.15684883  0.79995263    -0.13100
F624        F  0.31161156  0.25739599  0.71132475    -0.13600
F625        F  0.23424932  0.21442157  0.80199774    -0.15900
F626        F  0.31668879  0.20070839  0.71078862    -0.14400
F627        F  0.22158240  0.11731627  0.73348036    -0.14400
F628        F  0.34164072  0.11770095  0.76525513    -0.15900
C629        C  0.08397362  0.28344141  0.78116798     0.14200
C630        C  0.11036885  0.30329693  0.75918733     0.01200
C631        C  0.10512425  0.32415797  0.73747477     0.16100
C632        C  0.07350070  0.32382087  0.73663751     0.25600
C633        C  0.04669777  0.30287529  0.75774045    -0.40800
C634        C  0.05272218  0.28360607  0.78073197     0.32600
C635        C  0.14276508  0.30138808  0.75815940     0.01200
F636        F  0.13048946  0.34448216  0.71667075    -0.13100
F637        F  0.02796912  0.26433434  0.80251600    -0.13600
C638        C  0.15389385  0.29399686  0.72904964     0.16200
C639        C  0.18468551  0.29284646  0.72774932     0.25600
C640        C  0.20570731  0.29985360  0.75549146    -0.40700
C641        C  0.19212504  0.30320072  0.78534827     0.32500
C642        C  0.16186528  0.30524814  0.78642526     0.14200
F643        F  0.13440126  0.28696548  0.70189386    -0.13100
F644        F  0.20721965  0.30332231  0.81390028    -0.13600
F645        F  0.19305343  0.28362385  0.69947165    -0.15900
F646        F  0.15144325  0.31132265  0.81526514    -0.14400
F647        F  0.08772399  0.26258286  0.80213344    -0.14400
F648        F  0.06852433  0.34257038  0.71402817    -0.15900
C649        C  0.83186023  0.10162529  0.73771647     0.14200
C650        C  0.83036387  0.13055783  0.74605128     0.01200
C651        C  0.79848742  0.12763219  0.75402758     0.16100
C652        C  0.76868515  0.09623175  0.75462330     0.25600
C653        C  0.77003659  0.06645350  0.74853457    -0.40800
C654        C  0.80207481  0.06996610  0.73846960     0.32600
C655        C  0.86183459  0.16399273  0.74670801     0.01200
F656        F  0.79610979  0.15547494  0.76066279    -0.13100
F657        F  0.80484418  0.04360325  0.72728669    -0.13600
C658        C  0.88106087  0.17850290  0.71854005     0.16200
C659        C  0.90940854  0.21109941  0.71921419     0.25600
C660        C  0.91848721  0.23039390  0.74796773    -0.40700
C661        C  0.90110325  0.21396999  0.77678735     0.32500
C662        C  0.87257719  0.18167428  0.77589348     0.14200
F663        F  0.87209226  0.16128801  0.69022117    -0.13100
F664        F  0.91241967  0.22811695  0.80626798    -0.13600
F665        F  0.92837501  0.22326191  0.69180802    -0.15900
F666        F  0.85574541  0.16723584  0.80386072    -0.14400
F667        F  0.86229866  0.10400458  0.72883176    -0.14400
F668        F  0.73821642  0.09518378  0.76052328    -0.15900
C669        C  0.12926326  0.83134826  0.75389856     0.14200
C670        C  0.12908791  0.86121225  0.74705312     0.01200
C671        C  0.09800966  0.85992962  0.73879866     0.16100
C672        C  0.06711155  0.82930499  0.73858633     0.25600
C673        C  0.06641459  0.79913995  0.74795161    -0.40800
C674        C  0.09847078  0.80064052  0.75387066     0.32600
C675        C  0.16125413  0.89386980  0.74871474     0.01200
F676        F  0.09775236  0.88844845  0.73011181    -0.13100
F677        F  0.10020296  0.77226136  0.75946648    -0.13600
C678        C  0.18719476  0.90286474  0.72530234     0.16200
C679        C  0.21704604  0.93438197  0.72651564     0.25600
C680        C  0.22118604  0.95726459  0.75109033    -0.40700
C681        C  0.19554280  0.94788698  0.77489062     0.32500
C682        C  0.16577120  0.91644351  0.77365392     0.14200
F683        F  0.18306661  0.88154198  0.70074658    -0.13100
F684        F  0.19950023  0.96910295  0.79949908    -0.13600
F685        F  0.24117568  0.94311217  0.70291911    -0.15900
F686        F  0.14127847  0.90790751  0.79684614    -0.14400
F687        F  0.15930635  0.83200323  0.76107167    -0.14400
F688        F  0.03879562  0.82955359  0.72710191    -0.15900
C689        C  0.82976927  0.74413544  0.77237484     0.14200
C690        C  0.83412232  0.72028415  0.75454073     0.01200
C691        C  0.80574817  0.69560035  0.73715450     0.16100
C692        C  0.77415653  0.69533298  0.73694622     0.25600
C693        C  0.76984699  0.71913122  0.75488312    -0.40800
C694        C  0.79791073  0.74316209  0.77304531     0.32600
C695        C  0.86831620  0.72165915  0.75375072     0.01200
F696        F  0.80850163  0.67156487  0.72036415    -0.13100
F697        F  0.79453567  0.76572116  0.79175611    -0.13600
C698        C  0.88660225  0.72498577  0.78263650     0.16200
C699        C  0.91981793  0.72902021  0.78173935     0.25600
C700        C  0.93463061  0.72790655  0.75219195    -0.40700
C701        C  0.91621506  0.72345464  0.72343193     0.32500
C702        C  0.88362437  0.72098691  0.72408010     0.14200
F703        F  0.87232847  0.72432678  0.81182235    -0.13100
F704        F  0.93041772  0.72275893  0.69459048    -0.13600
F705        F  0.93778544  0.73462340  0.80970980    -0.15900
F706        F  0.86772286  0.71933099  0.69558347    -0.14400
F707        F  0.85668524  0.76913459  0.78853354    -0.14400
F708        F  0.74825117  0.67251720  0.71814162    -0.15900
C709        C  0.55923140  0.96073014  0.60894413     0.14200
C710        C  0.59041377  0.98965890  0.61644528     0.01200
C711        C  0.59989732  0.01955940  0.59935202     0.16100
C712        C  0.57857192  0.02053135  0.57508511     0.25600
C713        C  0.54718014  0.99155444  0.56751528    -0.40800
C714        C  0.53777561  0.96162793  0.58479325     0.32600
C715        C  0.61300484  0.98889724  0.64227536     0.01200
F716        F  0.62962966  0.04806916  0.60657588    -0.13100
F717        F  0.50760059  0.93317315  0.57866835    -0.13600
C718        C  0.64740192  0.99823193  0.63542221     0.16200
C719        C  0.66963986  0.00038166  0.66024355     0.25600
C720        C  0.65787403  0.99314745  0.69245850    -0.40700
C721        C  0.62277256  0.98149431  0.69888834     0.32500
C722        C  0.60064703  0.97982112  0.67406347     0.14200
F723        F  0.65951943  0.00549412  0.60462782    -0.13100
F724        F  0.61001093  0.97313206  0.72932330    -0.13600
F725        F  0.70275372  0.00950147  0.65272158    -0.15900
F726        F  0.56749764  0.97078626  0.68135424    -0.14400
F727        F  0.54971733  0.93140833  0.62477869    -0.14400
F728        F  0.58886277  0.04985883  0.55897089    -0.15900
C729        C  0.60976347  0.00542968  0.82079163     0.14200
C730        C  0.60855848  0.99011739  0.85064341     0.01200
C731        C  0.63044098  0.97658152  0.85589690     0.16100
C732        C  0.65360951  0.97887249  0.83183019     0.25600
C733        C  0.65508679  0.99461981  0.80225218    -0.40800
C734        C  0.63321966  0.00809043  0.79696201     0.32600
C735        C  0.58628003  0.99041093  0.87704951     0.01200
F736        F  0.63047927  0.96259856  0.88489023    -0.13100
F737        F  0.63571618  0.02520385  0.76930237    -0.13600
C738        C  0.56009984  0.96027307  0.89018487     0.16200
C739        C  0.53954654  0.96076477  0.91554747     0.25600
C740        C  0.54491333  0.99154000  0.92838857    -0.40700
C741        C  0.57128390  0.02173685  0.91498510     0.32500
C742        C  0.59164825  0.02109880  0.88959836     0.14200
F743        F  0.55410766  0.93030966  0.87808421    -0.13100
F744        F  0.57760288  0.05206333  0.92637100    -0.13600
F745        F  0.51432702  0.93102511  0.92734455    -0.15900
F746        F  0.61715359  0.05058589  0.87758620    -0.14400
F747        F  0.58865715  0.01838776  0.81501640    -0.14400
F748        F  0.67566323  0.96710039  0.83789958    -0.15900
C749        C  0.39115993  0.02263336  0.90704558     0.14200
C750        C  0.38185263  0.00057419  0.88062078     0.01200
C751        C  0.39210300  0.97609470  0.87993261     0.16100
C752        C  0.41205947  0.97417900  0.90505088     0.25600
C753        C  0.42230307  0.99697137  0.93096972    -0.40800
C754        C  0.41148476  0.02103544  0.93192601     0.32600
C755        C  0.36310803  0.00455473  0.85308242     0.01200
F756        F  0.38393073  0.95495734  0.85434575    -0.13100
F757        F  0.42018889  0.04266847  0.95716503    -0.13600
C758        C  0.37809351  0.03494869  0.83581961     0.16200
C759        C  0.35984442  0.04005802  0.81115757     0.25600
C760        C  0.32633815  0.01476910  0.80325604    -0.40700
C761        C  0.31183256  0.98378599  0.81955535     0.32500
C762        C  0.33011046  0.97872787  0.84444621     0.14200
F763        F  0.41049103  0.05971425  0.84294586    -0.13100
F764        F  0.27943212  0.95907103  0.81242544    -0.13600
F765        F  0.37499611  0.06968794  0.79481040    -0.15900
F766        F  0.31515848  0.94917437  0.86090916    -0.14400
F767        F  0.38054773  0.04577427  0.90864518    -0.14400
F768        F  0.42271398  0.95107655  0.90331434    -0.15900
C769        C  0.37635001  0.96898877  0.60861420     0.14200
C770        C  0.37967153  0.00004187  0.61747735     0.01200
C771        C  0.40429545  0.02937356  0.60188954     0.16100
C772        C  0.42543802  0.02785961  0.57781314     0.25600
C773        C  0.42230844  0.99678110  0.56865441    -0.40800
C774        C  0.39734664  0.96729375  0.58431211     0.32600
C775        C  0.35806047  0.00241049  0.64332978     0.01200
F776        F  0.40826456  0.05971656  0.61046178    -0.13100
F777        F  0.39336034  0.93679975  0.57639846    -0.13600
C778        C  0.36219814  0.99538245  0.67556985     0.16200
C779        C  0.34470956  0.00141066  0.70048430     0.25600
C780        C  0.32234080  0.01410713  0.69345675    -0.40700
C781        C  0.31735630  0.01996065  0.66095684     0.32500
C782        C  0.33521445  0.01433583  0.63617167     0.14200
F783        F  0.38440891  0.98412569  0.68304014    -0.13100
F784        F  0.29496130  0.03086667  0.65309054    -0.13600
F785        F  0.35113747  0.99646128  0.73153325    -0.15900
F786        F  0.33039834  0.02072999  0.60507736    -0.14400
F787        F  0.35252043  0.94027651  0.62329107    -0.14400
F788        F  0.44887627  0.05697972  0.56346415    -0.15900
C789        C  0.98989996  0.63351680  0.67850116     0.14200
C790        C  0.98850724  0.64121955  0.64583885     0.01200
C791        C  0.98985448  0.67161837  0.63762582     0.16100
C792        C  0.99343815  0.69449589  0.66178121     0.25600
C793        C  0.99538435  0.68707294  0.69447353    -0.40800
C794        C  0.99315348  0.65624103  0.70271314     0.32600
C795        C  0.98765209  0.61843782  0.62020019     0.01200
F796        F  0.98820703  0.67927290  0.60615727    -0.13100
F797        F  0.99582480  0.64886193  0.73404671    -0.13600
C798        C  0.95629718  0.59131286  0.61001347     0.16200
C799        C  0.95569707  0.56987980  0.58556745     0.25600
C800        C  0.98664508  0.57516449  0.57099775    -0.40700
C801        C  0.01806074  0.60263012  0.58144027     0.32500
C802        C  0.01845453  0.62400884  0.60576384     0.14200
F803        F  0.92623659  0.58571740  0.62367999    -0.13100
F804        F  0.04852354  0.60912679  0.56802593    -0.13600
F805        F  0.92476664  0.54399026  0.57629096    -0.15900
F806        F  0.04901292  0.65026317  0.61533480    -0.14400
F807        F  0.98914761  0.60443569  0.68679217    -0.14400
F808        F  0.99503378  0.72391465  0.65330942    -0.15900
C809        C  0.96191006  0.65024204  0.84794894     0.14200
C810        C  0.98810714  0.64292064  0.85618212     0.01200
C811        C  0.01849969  0.65697056  0.83755705     0.16100
C812        C  0.02321043  0.67903377  0.81215121     0.25600
C813        C  0.99727076  0.68678878  0.80433403    -0.40800
C814        C  0.96621355  0.67146914  0.82181445     0.32600
C815        C  0.98415247  0.62086164  0.88414150     0.01200
F816        F  0.04355478  0.64906185  0.84380993    -0.13100
F817        F  0.94042629  0.67787076  0.81432242    -0.13600
C818        C  0.95568070  0.58821838  0.88642615     0.16200
C819        C  0.95378054  0.56657299  0.91137119     0.25600
C820        C  0.98067106  0.57701501  0.93405290    -0.40700
C821        C  0.00829000  0.61020326  0.93257784     0.32500
C822        C  0.00983250  0.63195340  0.90807393     0.14200
F823        F  0.93050647  0.57670725  0.86363633    -0.13100
F824        F  0.03393308  0.62169227  0.95491231    -0.13600
F825        F  0.92651981  0.53488963  0.91229780    -0.15900
F826        F  0.03666550  0.66391014  0.90757334    -0.14400
F827        F  0.93261145  0.63773299  0.86583893    -0.14400
F828        F  0.05288679  0.69235657  0.79473908    -0.15900
C829        C  0.00916382  0.38300371  0.84563653     0.14200
C830        C  0.98175785  0.38964726  0.84990097     0.01200
C831        C  0.95346436  0.37480184  0.82870616     0.16100
C832        C  0.95217385  0.35311105  0.80428157     0.25600
C833        C  0.97923733  0.34596560  0.80042155    -0.40800
C834        C  0.00799090  0.36147927  0.82095025     0.32600
C835        C  0.98232910  0.41159270  0.87666323     0.01200
F836        F  0.92707438  0.38143105  0.83159375    -0.13100
F837        F  0.03413800  0.35449590  0.81812365    -0.13600
C838        C  0.00943173  0.44485962  0.87927957     0.16200
C839        C  0.00987106  0.46554042  0.90444815     0.25600
C840        C  0.98299617  0.45344423  0.92738847    -0.40700
C841        C  0.95576398  0.42015802  0.92459288     0.32500
C842        C  0.95555080  0.39942690  0.89961544     0.14200
F843        F  0.03510454  0.45760340  0.85694212    -0.13100
F844        F  0.92967327  0.40732584  0.94650623    -0.13600
F845        F  0.03614429  0.49772236  0.90578671    -0.15900
F846        F  0.92943192  0.36716295  0.89820398    -0.14400
F847        F  0.03644106  0.39633042  0.86618956    -0.14400
F848        F  0.92447485  0.33914352  0.78422729    -0.15900
C849        C  0.98742478  0.35574953  0.63459236     0.14200
C850        C  0.99164787  0.38749191  0.64203746     0.01200
C851        C  0.99534906  0.39762418  0.67456635     0.16100
C852        C  0.99369115  0.37589505  0.69934263     0.25600
C853        C  0.98828829  0.34363238  0.69196768    -0.40800
C854        C  0.98581643  0.33404559  0.65929263     0.32600
C855        C  0.99090812  0.40947662  0.61596335     0.01200
F856        F  0.99893520  0.42798580  0.68240856    -0.13100
F857        F  0.98159156  0.30348069  0.65128223    -0.13600
C858        C  0.96105730  0.39905271  0.59719470     0.16200
C859        C  0.95995115  0.41996712  0.57299029     0.25600
C860        C  0.98884083  0.45170041  0.56690133    -0.40700
C861        C  0.01889633  0.46186629  0.58551492     0.32500
C862        C  0.01980643  0.44101167  0.60989457     0.14200
F863        F  0.93267947  0.36876964  0.60273951    -0.13100
F864        F  0.04725267  0.49234100  0.58067468    -0.13600
F865        F  0.93068569  0.40893170  0.55530038    -0.15900
F866        F  0.04906477  0.45150704  0.62746634    -0.14400
F867        F  0.98462057  0.34570255  0.60331923    -0.14400
F868        F  0.99526879  0.38570023  0.73055303    -0.15900
C869        C  0.65489914  0.64498813  0.64248594     0.14200
C870        C  0.62686049  0.61406802  0.65206913     0.01200
C871        C  0.61932699  0.60755628  0.68521419     0.16100
C872        C  0.63895317  0.63191889  0.70835373     0.25600
C873        C  0.66601535  0.66337414  0.69864020    -0.40800
C874        C  0.67414808  0.66953749  0.66556320     0.32600
C875        C  0.60392018  0.58985810  0.62735298     0.00600
F876        F  0.59236672  0.57788496  0.69506379    -0.13100
F877        F  0.70032714  0.69966557  0.65559085    -0.13600
C878        C  0.61607412  0.57398589  0.60624258     0.16200
C879        C  0.59469267  0.55255175  0.58182892     0.25600
C880        C  0.56088727  0.54705856  0.57777113    -0.40700
C881        C  0.54871573  0.56266712  0.59937812     0.32500
C882        C  0.56997105  0.58370784  0.62393078     0.14200
F883        F  0.64874727  0.57940549  0.60921293    -0.13100
F884        F  0.51611428  0.55754445  0.59685806    -0.13600
F885        F  0.60750858  0.53809558  0.56154649    -0.15900
F886        F  0.55770366  0.59895061  0.64386322    -0.14400
F887        F  0.66255452  0.65200684  0.61063225    -0.14400
F888        F  0.63018456  0.62551002  0.74005972    -0.15900
C889        C  0.60639078  0.57184534  0.89153978     0.14200
C890        C  0.60721885  0.60269894  0.88667067     0.01200
C891        C  0.58925571  0.61211572  0.90845547     0.16100
C892        C  0.56970483  0.59062546  0.93358922     0.25600
C893        C  0.56815582  0.55935612  0.93808265    -0.40800
C894        C  0.58742632  0.55059678  0.91717129     0.32600
C895        C  0.62588505  0.62473624  0.85855621     0.01200
F896        F  0.59061954  0.64230838  0.90544128    -0.13100
F897        F  0.58689559  0.52083651  0.92063003    -0.13600
C898        C  0.60895671  0.63652819  0.83796916     0.16200
C899        C  0.62672660  0.65874396  0.81268701     0.25600
C900        C  0.66163429  0.66914319  0.80691224    -0.40700
C901        C  0.67826125  0.65630605  0.82644599     0.32500
C902        C  0.66069329  0.63462877  0.85231020     0.14200
F903        F  0.57497837  0.62626188  0.84212521    -0.13100
F904        F  0.71193539  0.66586536  0.82134645    -0.13600
F905        F  0.60958964  0.66969046  0.79341940    -0.15900
F906        F  0.67809460  0.62431385  0.87194447    -0.14400
F907        F  0.62276613  0.56153291  0.87066628    -0.14400
F908        F  0.55219443  0.60055526  0.95347518    -0.15900
C909        C  0.38640755  0.41728594  0.90044156     0.14200
C910        C  0.39760961  0.40241736  0.87712561     0.01200
C911        C  0.43055803  0.40575135  0.88033782     0.16100
C912        C  0.45190894  0.42368964  0.90629839     0.25600
C913        C  0.44096041  0.43918880  0.92922286    -0.40800
C914        C  0.40792879  0.43570947  0.92601636     0.32600
C915        C  0.37473062  0.38348981  0.84965939     0.01200
F916        F  0.44243721  0.39233463  0.85788001    -0.13100
F917        F  0.39601499  0.44944294  0.94812017    -0.13600
C918        C  0.36030915  0.39855048  0.83005065     0.16200
C919        C  0.33628942  0.37995725  0.80612668     0.25600
C920        C  0.32650125  0.34603247  0.80105180    -0.40700
C921        C  0.34225528  0.33143455  0.81936064     0.32500
C922        C  0.36596228  0.34991189  0.84368013     0.14200
F923        F  0.36932470  0.43129956  0.83424150    -0.13100
F924        F  0.33322076  0.29871342  0.81498700    -0.13600
F925        F  0.32250408  0.39511545  0.78790101    -0.15900
F926        F  0.37901383  0.33446477  0.86244451    -0.14400
F927        F  0.35423231  0.41342173  0.89881590    -0.14400
F928        F  0.48367177  0.42665433  0.90845591    -0.15900
C929        C  0.37494259  0.39772916  0.59069375     0.14200
C930        C  0.38414022  0.37986440  0.61244689     0.01200
C931        C  0.41675865  0.38236862  0.60960917     0.16100
C932        C  0.44043558  0.40367537  0.58643885     0.25600
C933        C  0.43189409  0.42295454  0.56574542    -0.40800
C934        C  0.39852062  0.41901297  0.56757610     0.32600
C935        C  0.36101542  0.36132151  0.63986741     0.01200
F936        F  0.42593402  0.36469037  0.62983198    -0.13100
F937        F  0.38872431  0.43609379  0.54720098    -0.13600
C938        C  0.32687636  0.33574063  0.63453651     0.16200
C939        C  0.30447014  0.32060528  0.66071163     0.25600
C940        C  0.31592842  0.33072523  0.69258420    -0.40700
C941        C  0.35028087  0.35560988  0.69789535     0.32500
C942        C  0.37253811  0.37089501  0.67178843     0.14200
F943        F  0.31524023  0.32554310  0.60399492    -0.13100
F944        F  0.36187388  0.36646450  0.72830003    -0.13600
F945        F  0.27165510  0.29592496  0.65497423    -0.15900
F946        F  0.40497115  0.39627772  0.67763056    -0.14400
F947        F  0.34366107  0.39587027  0.59284424    -0.14400
F948        F  0.47219905  0.40654473  0.58531100    -0.15900
loop_ 
_geom_bond_atom_site_label_1 
_geom_bond_atom_site_label_2 
_geom_bond_distance 
_geom_bond_site_symmetry_2 
_ccdc_geom_bond_type 
O1            V9   1.911       .  S
O1           C11   1.267       .  A
O2          V483   1.907       .  S
O2           C12   1.267       .  A
O3            V9   1.907       .  S
O3           C13   1.266       .  A
O4          V483   1.906       .  S
O4           C14   1.266       .  A
O5           V10   1.897       .  S
O5           C14   1.264       .  A
O6          V484   1.901       .  S
O6           C13   1.265       .  A
O7           V10   1.896       .  S
O7           C12   1.264       .  A
O8          V484   1.893       .  S
O8           C11   1.263       .  A
V9          O476   1.908   1_554  S
V9          O478   1.903   1_554  S
V9          V484   2.084       .  T
V10         O480   1.900       .  S
V10         O482   1.893       .  S
V10         V483   2.084       .  T
C11         C459   1.486       .  S
C12         C419   1.488       .  S
C13         C406   1.487       .  S
C14         C439   1.484       .  S
O15         V497   1.900       .  S
O15          C25   1.265       .  A
O16          V23   1.906       .  S
O16          C26   1.266       .  A
O17         V497   1.905       .  S
O17          C27   1.266       .  A
O18          V23   1.905       .  S
O18          C28   1.267       .  A
O19          V24   1.898   1_554  S
O19          C28   1.264   1_455  A
O20         V498   1.894       .  S
O20          C27   1.263   1_455  A
O21          V24   1.899   1_554  S
O21          C26   1.265   1_455  A
O22         V498   1.905       .  S
O22          C25   1.266   1_455  A
V23         O489   1.903   1_554  S
V23         O491   1.907   1_554  S
V23          V24   2.084   1_654  T
V24         O494   1.893       .  S
V24         O496   1.904       .  S
C25         C366   1.484       .  S
C26         C326   1.490       .  S
C27         C346   1.478       .  S
C28         C386   1.486       .  S
O29         V511   1.896       .  S
O29          C39   1.264   1_545  A
O30          V37   1.901   1_554  S
O30          C40   1.266   1_545  A
O31         V511   1.900       .  S
O31          C41   1.265   1_545  A
O32          V37   1.893   1_554  S
O32          C42   1.263   1_545  A
O33          V38   1.906   1_554  S
O33          C42   1.266       .  A
O34         V512   1.901       .  S
O34          C41   1.265       .  A
O35          V38   1.894   1_554  S
O35          C40   1.263       .  A
O36         V512   1.894       .  S
O36          C39   1.262       .  A
V37         O503   1.899       .  S
V37         O505   1.897       .  S
V37          V38   2.084   1_545  T
V38         O508   1.903       .  S
V38         O510   1.892       .  S
C39         C279   1.468       .  S
C40         C239   1.484       .  S
C41         C266   1.489       .  S
C42         C299   1.486       .  S
C43          C44   1.539       .  S
C43          C49   1.547   1_455  S
C43          C47   1.537       .  S
C43         C199   1.539       .  S
C44          H51   1.086       .  S
C44          C45   1.365       .  D
C45          C46   1.538   1_455  S
C45         C339   1.480   1_455  S
C46          C50   1.534       .  S
C46          C48   1.542   1_655  S
C46          H52   1.110       .  S
C47          H53   1.085       .  S
C47          C48   1.369       .  D
C48         C319   1.494   1_455  S
C49          H54   1.079       .  S
C49          C50   1.363       .  D
C50         C226   1.477       .  S
C55          C56   1.541       .  S
C55          C61   1.529       .  S
C55          C59   1.542       .  S
C55         C186   1.538       .  S
C56          H63   1.087       .  S
C56          C57   1.364       .  D
C57          C58   1.541   1_655  S
C57         C359   1.484       .  S
C58          C62   1.544       .  S
C58          C60   1.545   1_455  S
C58          H64   1.110       .  S
C59          H65   1.084       .  S
C59          C60   1.370       .  D
C60         C379   1.489       .  S
C61          H66   1.087       .  S
C61          C62   1.365   1_655  D
C62         C159   1.488       .  S
C67          C68   1.543       .  S
C67          C73   1.536       .  S
C67          C71   1.545       .  S
C67         C166   1.539       .  S
C68          H75   1.083       .  S
C68          C69   1.364       .  D
C69          C70   1.534       .  S
C69         C446   1.483       .  S
C70          C74   1.537       .  S
C70          C72   1.539       .  S
C70          H76   1.110       .  S
C71          H77   1.086       .  S
C71          C72   1.368       .  D
C72         C466   1.487       .  S
C73          H78   1.086       .  S
C73          C74   1.368       .  D
C74         C146   1.486       .  S
C79          C80   1.539       .  S
C79          C85   1.543       .  S
C79          C83   1.538       .  S
C79         C139   1.537       .  S
C80          H87   1.087       .  S
C80          C81   1.364       .  D
C81          C82   1.534   1_545  S
C81         C286   1.475       .  S
C82          C86   1.532       .  S
C82          C84   1.536   1_565  S
C82          H88   1.110       .  S
C83          H89   1.087       .  S
C83          C84   1.368       .  D
C84         C306   1.485       .  S
C85          H90   1.090       .  S
C85          C86   1.362   1_545  D
C86         C206   1.477       .  S
C91          C92   1.534       .  S
C91          C97   1.547   1_545  S
C91          C95   1.540       .  S
C91         C179   1.541       .  S
C92          H99   1.084       .  S
C92          C93   1.367   1_545  D
C93          C94   1.539       .  S
C93         C246   1.488       .  S
C94          C98   1.541       .  S
C94          C96   1.538       .  S
C94         H100   1.110       .  S
C95         H101   1.085       .  S
C95          C96   1.362   1_545  D
C96         C259   1.475       .  S
C97         H102   1.079       .  S
C97          C98   1.371       .  D
C98         C126   1.490       .  S
C103        C104   1.547       .  S
C103        C109   1.537       .  S
C103        C107   1.540       .  S
C103        C119   1.545       .  S
C104        H111   1.082       .  S
C104        C105   1.366       .  D
C105        C106   1.537       .  S
C105        C399   1.485       .  S
C106        C110   1.544       .  S
C106        C108   1.537       .  S
C106        H112   1.109       .  S
C107        H113   1.088       .  S
C107        C108   1.365       .  D
C108        C426   1.483       .  S
C109        H114   1.088       .  S
C109        C110   1.369       .  D
C110        C219   1.495       .  S
C115        C116   1.402       .  A
C115        C120   1.401       .  A
C115        F133   1.358       .  S
C116        C121   1.487       .  S
C116        C117   1.402       .  A
C117        C118   1.402       .  A
C117        F122   1.358       .  S
C118        C119   1.418       .  A
C118        F134   1.358       .  S
C119        C120   1.420       .  A
C120        F123   1.352       .  S
C121        C124   1.407       .  A
C121        C128   1.405       .  A
C124        C125   1.404       .  A
C124        F129   1.358       .  S
C125        C126   1.408       .  A
C125        F131   1.357       .  S
C126        C127   1.408       .  A
C127        C128   1.399       .  A
C127        F130   1.358       .  S
C128        F132   1.358       .  S
C135        C136   1.400       .  A
C135        C140   1.398       .  A
C135        F153   1.358       .  S
C136        C141   1.478       .  S
C136        C137   1.401       .  A
C137        C138   1.400       .  A
C137        F142   1.358       .  S
C138        C139   1.417       .  A
C138        F154   1.358       .  S
C139        C140   1.418       .  A
C140        F143   1.355       .  S
C141        C144   1.404       .  A
C141        C148   1.403       .  A
C144        C145   1.400       .  A
C144        F149   1.358       .  S
C145        C146   1.408       .  A
C145        F151   1.358       .  S
C146        C147   1.408       .  A
C147        C148   1.398       .  A
C147        F150   1.357       .  S
C148        F152   1.358       .  S
C155        C156   1.407       .  A
C155        C160   1.399       .  A
C155        F173   1.358       .  S
C156        C161   1.492       .  S
C156        C157   1.410       .  A
C157        C158   1.403       .  A
C157        F162   1.358       .  S
C158        C159   1.406       .  A
C158        F174   1.358       .  S
C159        C160   1.408       .  A
C160        F163   1.358       .  S
C161        C164   1.406       .  A
C161        C168   1.405       .  A
C164        C165   1.401       .  A
C164        F169   1.358       .  S
C165        C166   1.415       .  A
C165        F171   1.357       .  S
C166        C167   1.417       .  A
C167        C168   1.400       .  A
C167        F170   1.357       .  S
C168        F172   1.358       .  S
C175        C176   1.402       .  A
C175        C180   1.403       .  A
C175        F193   1.358       .  S
C176        C181   1.484       .  S
C176        C177   1.400       .  A
C177        C178   1.397       .  A
C177        F182   1.358       .  S
C178        C179   1.418       .  A
C178        F194   1.358       .  S
C179        C180   1.419       .  A
C180        F183   1.354       .  S
C181        C184   1.403       .  A
C181        C188   1.401       .  A
C184        C185   1.402       .  A
C184        F189   1.358       .  S
C185        C186   1.417       .  A
C185        F191   1.357       .  S
C186        C187   1.418       .  A
C187        C188   1.398       .  A
C187        F190   1.356       .  S
C188        F192   1.358       .  S
C195        C196   1.398       .  A
C195        C200   1.399       .  A
C195        F213   1.358       .  S
C196        C201   1.476       .  S
C196        C197   1.400       .  A
C197        C198   1.399       .  A
C197        F202   1.358       .  S
C198        C199   1.419       .  A
C198        F214   1.354       .  S
C199        C200   1.418       .  A
C200        F203   1.358       .  S
C201        C204   1.405       .  A
C201        C208   1.403       .  A
C204        C205   1.400       .  A
C204        F209   1.358       .  S
C205        C206   1.405       .  A
C205        F211   1.358       .  S
C206        C207   1.405       .  A
C207        C208   1.397       .  A
C207        F210   1.358       .  S
C208        F212   1.358       .  S
C215        C216   1.409       .  A
C215        C220   1.400       .  A
C215        F233   1.358       .  S
C216        C221   1.495       .  S
C216        C217   1.409       .  A
C217        C218   1.402       .  A
C217        F222   1.358       .  S
C218        C219   1.409       .  A
C218        F234   1.357       .  S
C219        C220   1.410       .  A
C220        F223   1.358       .  S
C221        C224   1.411       .  A
C221        C228   1.412       .  A
C224        C225   1.401       .  A
C224        F229   1.358       .  S
C225        C226   1.402       .  A
C225        F231   1.358       .  S
C226        C227   1.401       .  A
C227        C228   1.401       .  A
C227        F230   1.358       .  S
C228        F232   1.357       .  S
C235        C236   1.403       .  A
C235        C240   1.399       .  A
C235        F253   1.358       .  S
C236        C241   1.481       .  S
C236        C237   1.405   1_565  A
C237        C238   1.397       .  A
C237        F242   1.358       .  S
C238        C239   1.409   1_545  A
C238        F254   1.358       .  S
C239        C240   1.412       .  A
C240        F243   1.358       .  S
C241        C244   1.404       .  A
C241        C248   1.406       .  A
C244        C245   1.396       .  A
C244        F249   1.358   1_565  S
C245        C246   1.409       .  A
C245        F251   1.358   1_565  S
C246        C247   1.408       .  A
C247        C248   1.400       .  A
C247        F250   1.356       .  S
C248        F252   1.358       .  S
C255        C256   1.406   1_545  A
C255        C260   1.398       .  A
C255        F273   1.358       .  S
C256        C261   1.483       .  S
C256        C257   1.408       .  A
C257        C258   1.401       .  A
C257        F262   1.358       .  S
C258        C259   1.403       .  A
C258        F274   1.357       .  S
C259        C260   1.404   1_565  A
C260        F263   1.358       .  S
C261        C264   1.404       .  A
C261        C268   1.405   1_565  A
C264        C265   1.401       .  A
C264        F269   1.358       .  S
C265        C266   1.412       .  A
C265        F271   1.358       .  S
C266        C267   1.412   1_565  A
C267        C268   1.399       .  A
C267        F270   1.358       .  S
C268        F272   1.358       .  S
C275        C276   1.405   1_545  A
C275        C280   1.395       .  A
C275        F293   1.358       .  S
C276        C281   1.474   1_565  S
C276        C277   1.404       .  A
C277        C278   1.398       .  A
C277        F282   1.358       .  S
C278        C279   1.406       .  A
C278        F294   1.358       .  S
C279        C280   1.404   1_565  A
C280        F283   1.358       .  S
C281        C284   1.403       .  A
C281        C288   1.405   1_545  A
C284        C285   1.393       .  A
C284        F289   1.358       .  S
C285        C286   1.405       .  A
C285        F291   1.358       .  S
C286        C287   1.405   1_545  A
C287        C288   1.400       .  A
C287        F290   1.358       .  S
C288        F292   1.358       .  S
C295        C296   1.404   1_565  A
C295        C300   1.401       .  A
C295        F313   1.358       .  S
C296        C301   1.478       .  S
C296        C297   1.402       .  A
C297        C298   1.396       .  A
C297        F302   1.358       .  S
C298        C299   1.412   1_545  A
C298        F314   1.358       .  S
C299        C300   1.411       .  A
C300        F303   1.358       .  S
C301        C304   1.403   1_545  A
C301        C308   1.404       .  A
C304        C305   1.399   1_565  A
C304        F309   1.358       .  S
C305        C306   1.409       .  A
C305        F311   1.358   1_545  S
C306        C307   1.408       .  A
C307        C308   1.399       .  A
C307        F310   1.358       .  S
C308        F312   1.358       .  S
C315        C316   1.405       .  A
C315        C320   1.402       .  A
C315        F333   1.358       .  S
C316        C321   1.485       .  S
C316        C317   1.404       .  A
C317        C318   1.399   1_655  A
C317        F322   1.358   1_655  S
C318        C319   1.411   1_455  A
C318        F334   1.358       .  S
C319        C320   1.411       .  A
C320        F323   1.357       .  S
C321        C324   1.405       .  A
C321        C328   1.404   1_655  A
C324        C325   1.403       .  A
C324        F329   1.358       .  S
C325        C326   1.413       .  A
C325        F331   1.358       .  S
C326        C327   1.411   1_655  A
C327        C328   1.398       .  A
C327        F330   1.358       .  S
C328        F332   1.358       .  S
C335        C336   1.407       .  A
C335        C340   1.400       .  A
C335        F353   1.358       .  S
C336        C341   1.483       .  S
C336        C337   1.407   1_655  A
C337        C338   1.397       .  A
C337        F342   1.358       .  S
C338        C339   1.406   1_455  A
C338        F354   1.358       .  S
C339        C340   1.404       .  A
C340        F343   1.356       .  S
C341        C344   1.406       .  A
C341        C348   1.406   1_655  A
C344        C345   1.400       .  A
C344        F349   1.358       .  S
C345        C346   1.407       .  A
C345        F351   1.358       .  S
C346        C347   1.408   1_655  A
C347        C348   1.397       .  A
C347        F350   1.358       .  S
C348        F352   1.358       .  S
C355        C356   1.408   1_455  A
C355        C360   1.403       .  A
C355        F373   1.358       .  S
C356        C361   1.486       .  S
C356        C357   1.406       .  A
C357        C358   1.399       .  A
C357        F362   1.358       .  S
C358        C359   1.407       .  A
C358        F374   1.358       .  S
C359        C360   1.404   1_655  A
C360        F363   1.358       .  S
C361        C364   1.405   1_655  A
C361        C368   1.406       .  A
C364        C365   1.401       .  A
C364        F369   1.358       .  S
C365        C366   1.409   1_455  A
C365        F371   1.358       .  S
C366        C367   1.409       .  A
C367        C368   1.401       .  A
C367        F370   1.358       .  S
C368        F372   1.358       .  S
C375        C376   1.405       .  A
C375        C380   1.400       .  A
C375        F393   1.358       .  S
C376        C381   1.485       .  S
C376        C377   1.406       .  A
C377        C378   1.402       .  A
C377        F382   1.358       .  S
C378        C379   1.408       .  A
C378        F394   1.357       .  S
C379        C380   1.408       .  A
C380        F383   1.358       .  S
C381        C384   1.406       .  A
C381        C388   1.404   1_655  A
C384        C385   1.400       .  A
C384        F389   1.358       .  S
C385        C386   1.409       .  A
C385        F391   1.358       .  S
C386        C387   1.411   1_655  A
C387        C388   1.401       .  A
C387        F390   1.358       .  S
C388        F392   1.358       .  S
C395        C396   1.405       .  A
C395        C400   1.400       .  A
C395        F413   1.358       .  S
C396        C401   1.483       .  S
C396        C397   1.406       .  A
C397        C398   1.402       .  A
C397        F402   1.358       .  S
C398        C399   1.406       .  A
C398        F414   1.357       .  S
C399        C400   1.407       .  A
C400        F403   1.358       .  S
C401        C404   1.405       .  A
C401        C408   1.404       .  A
C404        C405   1.404       .  A
C404        F409   1.358       .  S
C405        C406   1.411       .  A
C405        F411   1.358       .  S
C406        C407   1.409       .  A
C407        C408   1.399       .  A
C407        F410   1.358       .  S
C408        F412   1.358       .  S
C415        C416   1.408       .  A
C415        C420   1.402       .  A
C415        F433   1.358       .  S
C416        C421   1.491       .  S
C416        C417   1.407       .  A
C417        C418   1.399       .  A
C417        F422   1.358       .  S
C418        C419   1.410       .  A
C418        F434   1.358       .  S
C419        C420   1.410       .  A
C420        F423   1.358       .  S
C421        C424   1.409       .  A
C421        C428   1.410       .  A
C424        C425   1.398       .  A
C424        F429   1.358       .  S
C425        C426   1.405       .  A
C425        F431   1.358       .  S
C426        C427   1.404       .  A
C427        C428   1.402       .  A
C427        F430   1.358       .  S
C428        F432   1.357       .  S
C435        C436   1.407       .  A
C435        C440   1.397       .  A
C435        F453   1.358       .  S
C436        C441   1.489       .  S
C436        C437   1.408       .  A
C437        C438   1.403       .  A
C437        F442   1.358       .  S
C438        C439   1.409       .  A
C438        F454   1.358       .  S
C439        C440   1.408       .  A
C440        F443   1.358       .  S
C441        C444   1.408       .  A
C441        C448   1.409       .  A
C444        C445   1.398       .  A
C444        F449   1.358       .  S
C445        C446   1.406       .  A
C445        F451   1.358       .  S
C446        C447   1.405       .  A
C447        C448   1.402       .  A
C447        F450   1.358       .  S
C448        F452   1.357       .  S
C455        C456   1.405       .  A
C455        C460   1.398       .  A
C455        F473   1.358       .  S
C456        C461   1.487       .  S
C456        C457   1.408       .  A
C457        C458   1.402       .  A
C457        F462   1.358       .  S
C458        C459   1.408       .  A
C458        F474   1.357       .  S
C459        C460   1.411       .  A
C460        F463   1.358       .  S
C461        C464   1.408       .  A
C461        C468   1.406       .  A
C464        C465   1.402       .  A
C464        F469   1.358       .  S
C465        C466   1.409       .  A
C465        F471   1.358       .  S
C466        C467   1.406       .  A
C467        C468   1.397       .  A
C467        F470   1.357       .  S
C468        F472   1.358       .  S
O475        V483   1.910       .  S
O475        C485   1.267       .  A
O476        C486   1.267       .  A
O477        V483   1.909       .  S
O477        C487   1.266       .  A
O478        C488   1.265       .  A
O479        V484   1.899   1_556  S
O479        C488   1.265       .  A
O480        C487   1.265       .  A
O481        V484   1.897   1_556  S
O481        C486   1.264       .  A
O482        C485   1.263       .  A
C485        C933   1.484       .  S
C486        C893   1.489       .  S
C487        C880   1.489       .  S
C488        C913   1.483       .  S
O489        C499   1.265       .  A
O490        V497   1.902       .  S
O490        C500   1.265       .  A
O491        C501   1.266       .  A
O492        V497   1.904       .  S
O492        C502   1.266       .  A
O493        V498   1.899       .  S
O493        C502   1.264   1_455  A
O494        C501   1.263   1_455  A
O495        V498   1.900       .  S
O495        C500   1.265   1_455  A
O496        C499   1.266   1_455  A
V497        V498   2.085   1_655  T
C499        C840   1.486       .  S
C500        C800   1.489       .  S
C501        C820   1.480       .  S
C502        C860   1.486       .  S
O503        C513   1.264   1_545  A
O504        V511   1.899       .  S
O504        C514   1.265   1_545  A
O505        C515   1.264   1_545  A
O506        V511   1.896       .  S
O506        C516   1.264   1_545  A
O507        V512   1.904       .  S
O507        C516   1.266       .  A
O508        C515   1.266       .  A
O509        V512   1.893       .  S
O509        C514   1.263       .  A
O510        C513   1.262       .  A
V511        V512   2.084   1_545  T
C513        C753   1.470       .  S
C514        C713   1.482       .  S
C515        C740   1.488       .  S
C516        C773   1.487       .  S
C517        C518   1.543       .  S
C517        C523   1.547   1_455  S
C517        C521   1.536       .  S
C517        C673   1.538       .  S
C518        H525   1.085       .  S
C518        C519   1.366       .  D
C519        C520   1.536   1_455  S
C519        C813   1.480   1_455  S
C520        C524   1.535       .  S
C520        C522   1.536   1_655  S
C520        H526   1.111       .  S
C521        H527   1.085       .  S
C521        C522   1.365       .  D
C522        C793   1.479   1_455  S
C523        H528   1.080       .  S
C523        C524   1.365       .  D
C524        C700   1.477       .  S
C529        C530   1.541       .  S
C529        C535   1.527       .  S
C529        C533   1.540       .  S
C529        C660   1.535       .  S
C530        H537   1.087       .  S
C530        C531   1.364       .  D
C531        C532   1.540   1_655  S
C531        C833   1.483       .  S
C532        C536   1.544       .  S
C532        C534   1.545   1_455  S
C532        H538   1.110       .  S
C533        H539   1.086       .  S
C533        C534   1.369       .  D
C534        C853   1.488       .  S
C535        H540   1.088       .  S
C535        C536   1.365   1_655  D
C536        C633   1.488       .  S
C541        C542   1.542       .  S
C541        C547   1.536       .  S
C541        C545   1.545       .  S
C541        C640   1.538       .  S
C542        H549   1.083       .  S
C542        C543   1.363       .  D
C543        C544   1.535       .  S
C543        C920   1.483       .  S
C544        C548   1.539       .  S
C544        C546   1.537       .  S
C544        H550   1.110       .  S
C545        H551   1.086       .  S
C545        C546   1.367       .  D
C546        C940   1.482       .  S
C547        H552   1.086       .  S
C547        C548   1.369       .  D
C548        C620   1.487       .  S
C553        C554   1.539       .  S
C553        C559   1.545       .  S
C553        C557   1.537       .  S
C553        C613   1.537       .  S
C554        H561   1.087       .  S
C554        C555   1.364       .  D
C555        C556   1.535   1_545  S
C555        C760   1.476       .  S
C556        C560   1.533       .  S
C556        C558   1.536   1_565  S
C556        H562   1.110       .  S
C557        H563   1.087       .  S
C557        C558   1.369       .  D
C558        C780   1.487       .  S
C559        H564   1.079       .  S
C559        C560   1.365   1_545  D
C560        C680   1.479       .  S
C565        C566   1.533       .  S
C565        C571   1.542   1_545  S
C565        C569   1.540       .  S
C565        C653   1.537       .  S
C566        H573   1.085       .  S
C566        C567   1.366       .  D
C567        C568   1.540   1_545  S
C567        C720   1.487   1_545  S
C568        C572   1.542       .  S
C568        C570   1.539   1_565  S
C568        H574   1.109       .  S
C569        H575   1.085       .  S
C569        C570   1.362       .  D
C570        C733   1.475   1_545  S
C571        H576   1.090       .  S
C571        C572   1.369       .  D
C572        C600   1.489       .  S
C577        C578   1.547       .  S
C577        C583   1.536       .  S
C577        C581   1.540       .  S
C577        C593   1.544       .  S
C578        H585   1.081       .  S
C578        C579   1.365       .  D
C579        C580   1.538       .  S
C579        C873   1.484       .  S
C580        C584   1.544       .  S
C580        C582   1.539       .  S
C580        H586   1.110       .  S
C581        H587   1.088       .  S
C581        C582   1.365       .  D
C582        C900   1.485       .  S
C583        H588   1.088       .  S
C583        C584   1.369       .  D
C584        C693   1.494       .  S
C589        C590   1.401       .  A
C589        C594   1.400       .  A
C589        F607   1.358       .  S
C590        C595   1.486       .  S
C590        C591   1.402       .  A
C591        C592   1.402       .  A
C591        F596   1.358       .  S
C592        C593   1.418       .  A
C592        F608   1.358       .  S
C593        C594   1.419       .  A
C594        F597   1.353       .  S
C595        C598   1.407       .  A
C595        C602   1.405       .  A
C598        C599   1.404       .  A
C598        F603   1.358       .  S
C599        C600   1.408       .  A
C599        F605   1.357       .  S
C600        C601   1.408       .  A
C601        C602   1.397       .  A
C601        F604   1.358       .  S
C602        F606   1.358       .  S
C609        C610   1.400       .  A
C609        C614   1.398       .  A
C609        F627   1.358       .  S
C610        C615   1.479       .  S
C610        C611   1.401       .  A
C611        C612   1.400       .  A
C611        F616   1.358       .  S
C612        C613   1.417       .  A
C612        F628   1.358       .  S
C613        C614   1.418       .  A
C614        F617   1.355       .  S
C615        C618   1.404       .  A
C615        C622   1.403       .  A
C618        C619   1.401       .  A
C618        F623   1.358       .  S
C619        C620   1.409       .  A
C619        F625   1.358       .  S
C620        C621   1.409       .  A
C621        C622   1.398       .  A
C621        F624   1.357       .  S
C622        F626   1.358       .  S
C629        C630   1.407       .  A
C629        C634   1.398       .  A
C629        F647   1.358       .  S
C630        C635   1.490       .  S
C630        C631   1.410       .  A
C631        C632   1.403       .  A
C631        F636   1.358       .  S
C632        C633   1.406       .  A
C632        F648   1.357       .  S
C633        C634   1.408       .  A
C634        F637   1.358       .  S
C635        C638   1.406       .  A
C635        C642   1.405       .  A
C638        C639   1.401       .  A
C638        F643   1.358       .  S
C639        C640   1.414       .  A
C639        F645   1.357       .  S
C640        C641   1.417       .  A
C641        C642   1.399       .  A
C641        F644   1.357       .  S
C642        F646   1.358       .  S
C649        C650   1.402       .  A
C649        C654   1.402       .  A
C649        F667   1.358       .  S
C650        C655   1.481       .  S
C650        C651   1.400       .  A
C651        C652   1.396       .  A
C651        F656   1.358       .  S
C652        C653   1.416       .  A
C652        F668   1.358       .  S
C653        C654   1.419       .  A
C654        F657   1.354       .  S
C655        C658   1.403       .  A
C655        C662   1.400       .  A
C658        C659   1.402       .  A
C658        F663   1.358       .  S
C659        C660   1.417       .  A
C659        F665   1.357       .  S
C660        C661   1.417       .  A
C661        C662   1.396       .  A
C661        F664   1.356       .  S
C662        F666   1.358       .  S
C669        C670   1.399       .  A
C669        C674   1.399       .  A
C669        F687   1.358       .  S
C670        C675   1.477       .  S
C670        C671   1.400       .  A
C671        C672   1.399       .  A
C671        F676   1.358       .  S
C672        C673   1.418       .  A
C672        F688   1.354       .  S
C673        C674   1.418       .  A
C674        F677   1.358       .  S
C675        C678   1.405       .  A
C675        C682   1.403       .  A
C678        C679   1.401       .  A
C678        F683   1.358       .  S
C679        C680   1.406       .  A
C679        F685   1.358       .  S
C680        C681   1.405       .  A
C681        C682   1.397       .  A
C681        F684   1.358       .  S
C682        F686   1.358       .  S
C689        C690   1.409       .  A
C689        C694   1.400       .  A
C689        F707   1.358       .  S
C690        C695   1.495       .  S
C690        C691   1.409       .  A
C691        C692   1.403       .  A
C691        F696   1.358       .  S
C692        C693   1.408       .  A
C692        F708   1.357       .  S
C693        C694   1.409       .  A
C694        F697   1.358       .  S
C695        C698   1.411       .  A
C695        C702   1.412       .  A
C698        C699   1.400       .  A
C698        F703   1.358       .  S
C699        C700   1.402       .  A
C699        F705   1.357       .  S
C700        C701   1.402       .  A
C701        C702   1.401       .  A
C701        F704   1.358       .  S
C702        F706   1.357       .  S
C709        C710   1.403       .  A
C709        C714   1.397       .  A
C709        F727   1.358       .  S
C710        C715   1.480       .  S
C710        C711   1.405   1_565  A
C711        C712   1.398       .  A
C711        F716   1.358       .  S
C712        C713   1.410   1_545  A
C712        F728   1.358       .  S
C713        C714   1.411       .  A
C714        F717   1.358       .  S
C715        C718   1.403       .  A
C715        C722   1.405       .  A
C718        C719   1.396   1_565  A
C718        F723   1.358   1_565  S
C719        C720   1.409   1_545  A
C719        F725   1.358       .  S
C720        C721   1.408       .  A
C721        C722   1.399       .  A
C721        F724   1.355       .  S
C722        F726   1.358       .  S
C729        C730   1.405   1_545  A
C729        C734   1.398       .  A
C729        F747   1.358       .  S
C730        C735   1.481       .  S
C730        C731   1.407       .  A
C731        C732   1.401       .  A
C731        F736   1.358       .  S
C732        C733   1.403       .  A
C732        F748   1.357       .  S
C733        C734   1.404   1_565  A
C734        F737   1.358       .  S
C735        C738   1.403       .  A
C735        C742   1.404   1_565  A
C738        C739   1.400       .  A
C738        F743   1.358       .  S
C739        C740   1.412       .  A
C739        F745   1.357       .  S
C740        C741   1.412   1_565  A
C741        C742   1.398       .  A
C741        F744   1.358       .  S
C742        F746   1.358       .  S
C749        C750   1.406       .  A
C749        C754   1.396       .  A
C749        F767   1.358       .  S
C750        C755   1.475       .  S
C750        C751   1.404   1_545  A
C751        C752   1.398       .  A
C751        F756   1.358       .  S
C752        C753   1.407       .  A
C752        F768   1.358       .  S
C753        C754   1.404   1_565  A
C754        F757   1.358       .  S
C755        C758   1.403       .  A
C755        C762   1.406   1_545  A
C758        C759   1.394       .  A
C758        F763   1.358       .  S
C759        C760   1.405       .  A
C759        F765   1.358       .  S
C760        C761   1.405   1_545  A
C761        C762   1.400       .  A
C761        F764   1.358       .  S
C762        F766   1.358       .  S
C769        C770   1.404   1_565  A
C769        C774   1.402       .  A
C769        F787   1.358       .  S
C770        C775   1.479       .  S
C770        C771   1.402       .  A
C771        C772   1.396       .  A
C771        F776   1.358       .  S
C772        C773   1.411   1_545  A
C772        F788   1.358       .  S
C773        C774   1.412       .  A
C774        F777   1.358       .  S
C775        C778   1.403   1_545  A
C775        C782   1.404       .  A
C778        C779   1.400   1_565  A
C778        F783   1.358       .  S
C779        C780   1.410       .  A
C779        F785   1.358   1_545  S
C780        C781   1.408       .  A
C781        C782   1.398       .  A
C781        F784   1.358       .  S
C782        F786   1.358       .  S
C789        C790   1.404       .  A
C789        C794   1.400       .  A
C789        F807   1.358       .  S
C790        C795   1.476       .  S
C790        C791   1.403       .  A
C791        C792   1.399       .  A
C791        F796   1.358       .  S
C792        C793   1.406       .  A
C792        F808   1.358       .  S
C793        C794   1.406       .  A
C794        F797   1.358       .  S
C795        C798   1.401       .  A
C795        C802   1.401   1_655  A
C798        C799   1.401       .  A
C798        F803   1.358       .  S
C799        C800   1.413       .  A
C799        F805   1.358       .  S
C800        C801   1.412   1_655  A
C801        C802   1.398       .  A
C801        F804   1.358       .  S
C802        F806   1.358       .  S
C809        C810   1.406       .  A
C809        C814   1.400       .  A
C809        F827   1.358       .  S
C810        C815   1.485       .  S
C810        C811   1.408   1_655  A
C811        C812   1.397       .  A
C811        F816   1.358       .  S
C812        C813   1.405   1_455  A
C812        F828   1.358       .  S
C813        C814   1.405       .  A
C814        F817   1.355       .  S
C815        C818   1.408       .  A
C815        C822   1.406   1_655  A
C818        C819   1.401       .  A
C818        F823   1.358       .  S
C819        C820   1.408       .  A
C819        F825   1.358       .  S
C820        C821   1.408   1_655  A
C821        C822   1.396       .  A
C821        F824   1.358       .  S
C822        F826   1.358       .  S
C829        C830   1.409   1_455  A
C829        C834   1.403       .  A
C829        F847   1.358       .  S
C830        C835   1.487       .  S
C830        C831   1.406       .  A
C831        C832   1.399       .  A
C831        F836   1.358       .  S
C832        C833   1.407       .  A
C832        F848   1.358       .  S
C833        C834   1.404   1_655  A
C834        F837   1.358       .  S
C835        C838   1.406   1_655  A
C835        C842   1.407       .  A
C838        C839   1.402       .  A
C838        F843   1.358       .  S
C839        C840   1.409   1_455  A
C839        F845   1.358       .  S
C840        C841   1.409       .  A
C841        C842   1.401       .  A
C841        F844   1.358       .  S
C842        F846   1.358       .  S
C849        C850   1.404       .  A
C849        C854   1.400       .  A
C849        F867   1.358       .  S
C850        C855   1.484       .  S
C850        C851   1.406       .  A
C851        C852   1.402       .  A
C851        F856   1.358       .  S
C852        C853   1.408       .  A
C852        F868   1.357       .  S
C853        C854   1.408       .  A
C854        F857   1.358       .  S
C855        C858   1.406       .  A
C855        C862   1.404   1_655  A
C858        C859   1.401       .  A
C858        F863   1.358       .  S
C859        C860   1.409       .  A
C859        F865   1.358       .  S
C860        C861   1.411   1_655  A
C861        C862   1.401       .  A
C861        F864   1.358       .  S
C862        F866   1.358       .  S
C869        C870   1.406       .  A
C869        C874   1.401       .  A
C869        F887   1.358       .  S
C870        C875   1.485       .  S
C870        C871   1.407       .  A
C871        C872   1.402       .  A
C871        F876   1.358       .  S
C872        C873   1.405       .  A
C872        F888   1.357       .  S
C873        C874   1.406       .  A
C874        F877   1.358       .  S
C875        C878   1.405       .  A
C875        C882   1.404       .  A
C878        C879   1.404       .  A
C878        F883   1.358       .  S
C879        C880   1.411       .  A
C879        F885   1.358       .  S
C880        C881   1.410       .  A
C881        C882   1.400       .  A
C881        F884   1.358       .  S
C882        F886   1.358       .  S
C889        C890   1.408       .  A
C889        C894   1.403       .  A
C889        F907   1.358       .  S
C890        C895   1.493       .  S
C890        C891   1.408       .  A
C891        C892   1.399       .  A
C891        F896   1.358       .  S
C892        C893   1.410       .  A
C892        F908   1.358       .  S
C893        C894   1.410       .  A
C894        F897   1.358       .  S
C895        C898   1.409       .  A
C895        C902   1.410       .  A
C898        C899   1.398       .  A
C898        F903   1.358       .  S
C899        C900   1.406       .  A
C899        F905   1.358       .  S
C900        C901   1.405       .  A
C901        C902   1.404       .  A
C901        F904   1.358       .  S
C902        F906   1.357       .  S
C909        C910   1.407       .  A
C909        C914   1.398       .  A
C909        F927   1.358       .  S
C910        C915   1.487       .  S
C910        C911   1.407       .  A
C911        C912   1.401       .  A
C911        F916   1.358       .  S
C912        C913   1.409       .  A
C912        F928   1.358       .  S
C913        C914   1.408       .  A
C914        F917   1.358       .  S
C915        C918   1.407       .  A
C915        C922   1.409       .  A
C918        C919   1.398       .  A
C918        F923   1.358       .  S
C919        C920   1.406       .  A
C919        F925   1.358       .  S
C920        C921   1.405       .  A
C921        C922   1.402       .  A
C921        F924   1.358       .  S
C922        F926   1.358       .  S
C929        C930   1.404       .  A
C929        C934   1.398       .  A
C929        F947   1.358       .  S
C930        C935   1.484       .  S
C930        C931   1.407       .  A
C931        C932   1.402       .  A
C931        F936   1.358       .  S
C932        C933   1.408       .  A
C932        F948   1.357       .  S
C933        C934   1.410       .  A
C934        F937   1.358       .  S
C935        C938   1.407       .  A
C935        C942   1.406       .  A
C938        C939   1.401       .  A
C938        F943   1.358       .  S
C939        C940   1.407       .  A
C939        F945   1.358       .  S
C940        C941   1.404       .  A
C941        C942   1.397       .  A
C941        F944   1.357       .  S
C942        F946   1.358       .  S
