geometry optimzed in LAMMPS
_audit_creation_date              2020-11-30 
_audit_creation_method            'lammps2cif' 
_symmetry_space_group_name_H-M    'P1' 
_symmetry_Int_Tables_number       1 
_symmetry_cell_setting            triclinic 
loop_ 
_symmetry_equiv_pos_as_xyz 
  x,y,z 
_cell_length_a                    56.23747577 
_cell_length_b                    56.27227890441215 
_cell_length_c                    44.18925745619798 
_cell_angle_alpha                 90.03328839425097 
_cell_angle_beta                  89.82391911899254 
_cell_angle_gamma                 121.25975638374744 
loop_ 
_atom_site_label 
_atom_site_type_symbol 
_atom_site_fract_x 
_atom_site_fract_y 
_atom_site_fract_z 
_atom_site_charge 
In1        In  0.23497753  0.16630916  0.94706826     1.36900
C2          C  0.27060425  0.21015879  0.97893580     0.78600
O3          O  0.21524385  0.18528216  0.91960525    -0.59800
O4          O  0.19530937  0.16510681  0.96041405    -0.50700
C5          C  0.25416102  0.15707734  0.89611213     0.71300
O6          O  0.26832294  0.17779366  0.91285964    -0.45600
C7          C  0.23315807  0.12660463  0.98175540     0.76000
O8          O  0.27160664  0.20971673  0.95051309    -0.57500
O9          O  0.21108533  0.12475910  0.97207644    -0.47600
O10         O  0.25023952  0.18913863  0.99087104    -0.53900
C11         C  0.19664786  0.18031961  0.93876180     0.86200
O12         O  0.22932644  0.14084508  0.90475478    -0.55800
O13         O  0.25526416  0.14758843  0.97253248    -0.59100
In14       In  0.24149738  0.16111811  0.53501380     1.36900
C15         C  0.27640097  0.20389721  0.50049639     0.78600
O16         O  0.26016531  0.14167508  0.50800012    -0.59800
O17         O  0.21635045  0.11768802  0.51445067    -0.50700
C18         C  0.26059236  0.15425604  0.58759493     0.71300
O19         O  0.27424637  0.17491075  0.57051927    -0.45600
C20         C  0.20366424  0.17570998  0.54203648     0.76000
O21         O  0.27943873  0.20355167  0.52867261    -0.57500
O22         O  0.20211823  0.15986349  0.52103622    -0.47600
O23         O  0.25490170  0.18302461  0.49012807    -0.53900
C24         C  0.23762137  0.11967062  0.50202885     0.86200
O25         O  0.23649859  0.13660234  0.57817894    -0.55800
O26         O  0.22221584  0.18109018  0.56123840    -0.59100
In27       In  0.33695357  0.06415445  0.53964326     1.36900
C28         C  0.29606016  0.05661630  0.50377476     0.78600
O29         O  0.35747559  0.10233983  0.51124647    -0.59800
O30         O  0.37840545  0.08015034  0.51480112    -0.50700
C31         C  0.34515705  0.09105940  0.59220490     0.71300
O32         O  0.32632745  0.08642874  0.57377070    -0.45600
C33         C  0.31854359  0.01056251  0.54929826     0.76000
O34         O  0.29705693  0.06265458  0.53134935    -0.57500
O35         O  0.34121143  0.02611876  0.53571784    -0.47600
O36         O  0.31512080  0.05284045  0.49477708    -0.53900
C37         C  0.37757604  0.10009347  0.50274810     0.86200
O38         O  0.36056322  0.08195782  0.58412087    -0.55800
O39         O  0.30711449  0.02289491  0.55993545    -0.59100
In40       In  0.24110829  0.06181737  0.44775224     1.36900
C41         C  0.27556029  0.05624268  0.48348273     0.78600
O42         O  0.25991258  0.10165653  0.47267579    -0.59800
O43         O  0.21574719  0.07710250  0.47247739    -0.50700
C44         C  0.25891986  0.08908962  0.39532883     0.71300
O45         O  0.27396701  0.08525983  0.41314505    -0.45600
C46         C  0.20568842  0.00751466  0.43942582     0.76000
O47         O  0.27980080  0.06054528  0.45548832    -0.57500
O48         O  0.19929578  0.02187591  0.45560068    -0.47600
O49         O  0.25316832  0.05353203  0.49296974    -0.53900
C50         C  0.23738735  0.09875355  0.48192965     0.86200
O51         O  0.23391304  0.07857762  0.40380565    -0.55800
O52         O  0.22830573  0.02136679  0.42537099    -0.59100
In53       In  0.23909357  0.07058877  0.03680666     1.36900
C54         C  0.27368616  0.06201537  0.00456514     0.78600
O55         O  0.22111466  0.03111124  0.06337927    -0.59800
O56         O  0.19917987  0.03098087  0.02442486    -0.50700
C57         C  0.25884302  0.09931463  0.08793505     0.71300
O58         O  0.27345161  0.09576506  0.06904213    -0.45600
C59         C  0.23418691  0.10655589  0.00218771     0.76000
O60         O  0.27599267  0.06557883  0.03275889    -0.57500
O61         O  0.21329059  0.08665867  0.01527603    -0.47600
O62         O  0.25298299  0.06146270  0.99305462    -0.53900
C63         C  0.20180592  0.01703852  0.04499401     0.86200
O64         O  0.23342583  0.08812508  0.08099702    -0.55800
O65         O  0.25697388  0.10839766  0.00799007    -0.59100
In66       In  0.33695519  0.26739569  0.02833953     1.36900
C67         C  0.29287771  0.23193754  0.99684132     0.78600
O68         O  0.31401412  0.28328897  0.05457193    -0.59800
O69         O  0.33760863  0.30710900  0.01679527    -0.50700
C70         C  0.34543465  0.24819638  0.07951944     0.71300
O71         O  0.32765364  0.23310588  0.06015812    -0.45600
C72         C  0.37778486  0.27126355  0.99376982     0.76000
O73         O  0.29475191  0.22932282  0.02487033    -0.57500
O74         O  0.38045484  0.29247802  0.00702308    -0.47600
O75         O  0.31285907  0.25350993  0.98512598    -0.53900
C76         C  0.32001660  0.30318850  0.03698261     0.86200
O77         O  0.35965577  0.27378641  0.07293750    -0.55800
O78         O  0.35522401  0.24908814  0.99902352    -0.59100
C79         C  0.33922253  0.17598266  0.19544488     0.87500
C80         C  0.31112388  0.15252453  0.18281257    -0.52700
C81         C  0.31082133  0.15047111  0.15196006     0.10400
C82         C  0.33832123  0.17165794  0.13666173     0.21400
C83         C  0.36123155  0.17002442  0.18267700    -0.53400
C84         C  0.36053687  0.16774198  0.15183893     0.10500
C85         C  0.34468566  0.20238354  0.17852793    -0.53000
C86         C  0.34421584  0.19996415  0.14782255     0.11100
H87         H  0.29317981  0.13902077  0.19694275     0.15600
H88         H  0.33797845  0.16987869  0.11157979     0.01400
H89         H  0.37607897  0.16849095  0.19643757     0.15900
H90         H  0.34834213  0.22119455  0.18981507     0.15700
C91         C  0.33643238  0.16091197  0.28358966     0.87500
C92         C  0.35763988  0.15426253  0.29716410    -0.52700
C93         C  0.35780846  0.15403134  0.32807234     0.10400
C94         C  0.33705309  0.16048923  0.34267579     0.21400
C95         C  0.30834431  0.13934538  0.29817023    -0.53400
C96         C  0.30882520  0.13926730  0.32906596     0.10500
C97         C  0.34380273  0.18897973  0.29835403    -0.53000
C98         C  0.34405684  0.18848808  0.32923741     0.11100
H99         H  0.37123241  0.15019125  0.28355545     0.15600
H100        H  0.33729214  0.16025531  0.36784820     0.01400
H101        H  0.28998112  0.12513351  0.28519331     0.15900
H102        H  0.34805430  0.20763837  0.28606103     0.15700
In103      In  0.33997576  0.26046323  0.44638242     1.36900
C104        C  0.29749896  0.22556896  0.48107074     0.78600
O105        O  0.35929097  0.24207428  0.47334703    -0.59800
O106        O  0.38356282  0.28581143  0.46660695    -0.50700
C107        C  0.34670260  0.23981239  0.39485965     0.71300
O108        O  0.32737297  0.22595363  0.41341392    -0.45600
C109        C  0.32628563  0.29890630  0.44006200     0.76000
O110        O  0.29663567  0.22383442  0.45263773    -0.57500
O111        O  0.34310981  0.30077493  0.45998216    -0.47600
O112        O  0.31910861  0.24622892  0.49157493    -0.53900
C113        C  0.38145310  0.26452003  0.47899625     0.86200
O114        O  0.36297504  0.26497148  0.40209670    -0.55800
O115        O  0.31919008  0.27944936  0.42147419    -0.59100
In116      In  0.43532893  0.26540419  0.94130684     1.36900
C117        C  0.44313084  0.23300843  0.97829705     0.78600
O118        O  0.47558724  0.27919070  0.91753173    -0.59800
O119        O  0.47480230  0.30702291  0.94930733    -0.50700
C120        C  0.40634590  0.24411341  0.89065844     0.71300
O121        O  0.40939252  0.23005777  0.91063577    -0.45600
C122        C  0.39861833  0.27085942  0.97398910     0.76000
O123        O  0.44130529  0.22953451  0.95008720    -0.57500
O124        O  0.42119092  0.29203529  0.96539299    -0.47600
O125        O  0.44188333  0.25347081  0.98747305    -0.53900
C126        C  0.48930423  0.30108733  0.93274696     0.86200
O127        O  0.41872805  0.26998631  0.89586002    -0.55800
O128        O  0.39480247  0.24804560  0.96454617    -0.59100
In129      In  0.43811828  0.17379021  0.03618351     1.36900
C130        C  0.44433570  0.21357346  0.99902658     0.78600
O131        O  0.47841325  0.19763968  0.06088743    -0.59800
O132        O  0.47592158  0.17055662  0.02612663    -0.50700
C133        C  0.41146697  0.16717914  0.08821304     0.71300
O134        O  0.41841398  0.18718393  0.07047240    -0.45600
C135        C  0.40003413  0.13085305  0.00474796     0.76000
O136        O  0.44140135  0.21453328  0.02713566    -0.57500
O137        O  0.42083230  0.13093280  0.01563521    -0.47600
O138        O  0.44628255  0.19342740  0.99008271    -0.53900
C139        C  0.49094278  0.18894353  0.04510022     0.86200
O140        O  0.41862664  0.15025770  0.07993872    -0.55800
O141        O  0.39823034  0.15155492  0.01157996    -0.59100
In142      In  0.33774412  0.06935487  0.95348326     1.36900
C143        C  0.29486542  0.06137030  0.98626877     0.78600
O144        O  0.32137786  0.03022323  0.92644162    -0.59800
O145        O  0.33731027  0.03120591  0.97004108    -0.50700
C146        C  0.34326093  0.09484899  0.90119215     0.71300
O147        O  0.32272638  0.08670289  0.91856714    -0.45600
C148        C  0.37904546  0.10894767  0.98547736     0.76000
O149        O  0.29524346  0.06307914  0.95787178    -0.57500
O150        O  0.38102916  0.08947543  0.97391160    -0.47600
O151        O  0.31540155  0.06157271  0.99775151    -0.53900
C152        C  0.32453953  0.01692789  0.94724989     0.86200
O153        O  0.36153936  0.08974838  0.91012812    -0.55800
O154        O  0.35714385  0.10865424  0.97913005    -0.59100
C155        C  0.34104450  0.16773469  0.69778113     0.87500
C156        C  0.34586370  0.14451474  0.68651110    -0.52700
C157        C  0.34420463  0.14145950  0.65570936     0.10400
C158        C  0.33796671  0.16157530  0.63920683     0.21400
C159        C  0.36248159  0.19388112  0.68012727    -0.53400
C160        C  0.36072026  0.19051422  0.64959820     0.10500
C161        C  0.31258483  0.16035614  0.68452270    -0.53000
C162        C  0.31116512  0.15712856  0.65374272     0.11100
H163        H  0.35025195  0.13191804  0.70139461     0.15600
H164        H  0.33675078  0.15907061  0.61418696     0.01400
H165        H  0.37787390  0.21325459  0.69079858     0.15900
H166        H  0.29560205  0.15862447  0.69805745     0.15700
C167        C  0.33065719  0.15802763  0.78680193     0.87500
C168        C  0.30318055  0.15241895  0.80127813    -0.52700
C169        C  0.30415513  0.15461095  0.83208909     0.10400
C170        C  0.33222833  0.16209906  0.84574527     0.21400
C171        C  0.35302773  0.18717109  0.79894696    -0.53400
C172        C  0.35355691  0.18902696  0.82975694     0.10500
C173        C  0.33709164  0.13770716  0.80291899    -0.53000
C174        C  0.33800230  0.14001943  0.83367628     0.11100
H175        H  0.28481904  0.14753350  0.78827590     0.15600
H176        H  0.33287590  0.16375893  0.87084926     0.01400
H177        H  0.36747940  0.20478542  0.78524503     0.15900
H178        H  0.34044038  0.12276296  0.79105103     0.15700
In179      In  0.43912792  0.25927736  0.53091029     1.36900
C180        C  0.44520695  0.22452767  0.49597625     0.78600
O181        O  0.39903686  0.24159924  0.50731656    -0.59800
O182        O  0.42454154  0.28573009  0.50754425    -0.50700
C183        C  0.41034754  0.23904035  0.58163917     0.71300
O184        O  0.41527708  0.22488689  0.56351585    -0.45600
C185        C  0.49274416  0.29489140  0.54202020     0.76000
O186        O  0.44326340  0.22227586  0.52429342    -0.57500
O187        O  0.48010642  0.29910751  0.52116187    -0.47600
O188        O  0.44563542  0.24549073  0.48539442    -0.53900
C189        C  0.40240343  0.26437626  0.49847653     0.86200
O190        O  0.42033433  0.26420252  0.57419090    -0.55800
O191        O  0.47735289  0.27486633  0.55913864    -0.59100
In192      In  0.43487994  0.15970048  0.44393771     1.36900
C193        C  0.44448058  0.20303168  0.47700958     0.78600
O194        O  0.39601994  0.13989581  0.47124209    -0.59800
O195        O  0.41782960  0.11844670  0.46933372    -0.50700
C196        C  0.40639688  0.15103606  0.39275238     0.71300
O197        O  0.41136926  0.16989829  0.41137694    -0.45600
C198        C  0.48809353  0.17509407  0.43537332     0.76000
O199        O  0.44259386  0.20294761  0.44864973    -0.57500
O200        O  0.47279960  0.15656383  0.45422341    -0.47600
O201        O  0.44338724  0.18193893  0.48811933    -0.53900
C202        C  0.39776609  0.11973071  0.48050146     0.86200
O203        O  0.41590585  0.13577922  0.40000035    -0.55800
O204        O  0.47545203  0.18310624  0.41883280    -0.59100
In205      In  0.26781740  0.43403847  0.94761825     1.36900
C206        C  0.23456713  0.44132836  0.98351670     0.78600
O207        O  0.24905393  0.39464554  0.97344411    -0.59800
O208        O  0.29318733  0.41855013  0.97191014    -0.50700
C209        C  0.24777540  0.40569998  0.89623456     0.71300
O210        O  0.23317026  0.40837407  0.91586649    -0.45600
C211        C  0.30382077  0.48765869  0.93736659     0.76000
O212        O  0.23054838  0.43742695  0.95549791    -0.57500
O213        O  0.31071921  0.47299851  0.95217194    -0.47600
O214        O  0.25671022  0.44353486  0.99302473    -0.53900
C215        C  0.27155024  0.39704542  0.98174383     0.86200
O216        O  0.27340451  0.41770653  0.90244380    -0.55800
O217        O  0.28017423  0.47432581  0.92542410    -0.59100
In218      In  0.17185829  0.43162297  0.03891320     1.36900
C219        C  0.21367225  0.44053171  0.00359732     0.78600
O220        O  0.15219039  0.39401730  0.01020665    -0.59800
O221        O  0.12938215  0.41422683  0.01664869    -0.50700
C222        C  0.16214739  0.40147707  0.08898376     0.71300
O223        O  0.18253432  0.40866808  0.07168802    -0.45600
C224        C  0.18980982  0.48512304  0.04854234     0.76000
O225        O  0.21434449  0.43815239  0.03185978    -0.57500
O226        O  0.17088921  0.47086169  0.02969730    -0.47600
O227        O  0.19235519  0.43975188  0.99365238    -0.53900
C228        C  0.13085108  0.39485764  0.00383630     0.86200
O229        O  0.14629696  0.41016728  0.08135153    -0.55800
O230        O  0.19679487  0.47136226  0.06462721    -0.59100
In231      In  0.16647633  0.23286161  0.94521730     1.36900
C232        C  0.20991323  0.26886951  0.97782280     0.78600
O233        O  0.14612955  0.25121376  0.97101419    -0.59800
O234        O  0.12396826  0.20716397  0.96835668    -0.50700
C235        C  0.15900910  0.25318670  0.89408772     0.71300
O236        O  0.17873144  0.26702662  0.91209377    -0.45600
C237        C  0.18135293  0.19504128  0.93836500     0.76000
O238        O  0.20958344  0.27050834  0.94944426    -0.57500
O239        O  0.16660722  0.19438935  0.96019292    -0.47600
O240        O  0.18897585  0.24800471  0.98917866    -0.53900
C241        C  0.12517748  0.22860846  0.97912496     0.86200
O242        O  0.14262386  0.22806125  0.90164213    -0.55800
O243        O  0.18533574  0.21255629  0.91824088    -0.59100
In244      In  0.26681947  0.33263135  0.03144971     1.36900
C245        C  0.23155727  0.29060294  0.99656700     0.78600
O246        O  0.24848604  0.35401216  0.00770000    -0.59800
O247        O  0.29258018  0.37613457  0.01094725    -0.50700
C248        C  0.24774794  0.33884981  0.08434394     0.71300
O249        O  0.23326014  0.31973637  0.06590502    -0.45600
C250        C  0.30430931  0.31741178  0.03760318     0.76000
O251        O  0.23009894  0.28974164  0.02497768    -0.57500
O252        O  0.30742340  0.33545117  0.01852004    -0.47600
O253        O  0.25186852  0.31245248  0.98578197    -0.53900
C254        C  0.27122726  0.37549028  0.00080609     0.86200
O255        O  0.27268780  0.35515656  0.07621470    -0.55800
O256        O  0.28401521  0.30969309  0.05522152    -0.59100
In257      In  0.17433717  0.22831948  0.53305465     1.36900
C258        C  0.21820150  0.26385508  0.50092048     0.78600
O259        O  0.19373211  0.20932768  0.56054813    -0.59800
O260        O  0.17305695  0.18872329  0.52023095    -0.50700
C261        C  0.16503121  0.24781323  0.58350330     0.71300
O262        O  0.18581579  0.26189297  0.56670359    -0.45600
C263        C  0.13407051  0.22509134  0.49871788     0.76000
O264        O  0.21829002  0.26405130  0.52936757    -0.57500
O265        O  0.13317323  0.20326311  0.50769330    -0.47600
O266        O  0.19649404  0.24448376  0.48900669    -0.53900
C267        C  0.18865894  0.19058875  0.54164785     0.86200
O268        O  0.14871253  0.22299211  0.57508740    -0.55800
O269        O  0.15434379  0.24743160  0.50847580    -0.59100
In270      In  0.06880709  0.23278323  0.03546820     1.36900
C271        C  0.06269448  0.26847781  0.00246285     0.78600
O272        O  0.10692130  0.25123859  0.00735904    -0.59800
O273        O  0.08439175  0.20725414  0.01173084    -0.50700
C274        C  0.09693729  0.25077221  0.08718978     0.71300
O275        O  0.09191036  0.26544597  0.07011824    -0.45600
C276        C  0.01498453  0.19644966  0.04426413     0.76000
O277        O  0.06773125  0.27177770  0.03036777    -0.57500
O278        O  0.02897393  0.19219306  0.02507503    -0.47600
O279        O  0.05923086  0.24619445  0.99169701    -0.53900
C280        C  0.10473544  0.22863880  0.99983891     0.86200
O281        O  0.08724589  0.22604080  0.07830697    -0.55800
O282        O  0.02903049  0.21727935  0.06084465    -0.59100
In283      In  0.27572222  0.33015931  0.45146997     1.36900
C284        C  0.24021542  0.28598682  0.48304622     0.78600
O285        O  0.29311716  0.30984367  0.42306217    -0.59800
O286        O  0.31523176  0.33072352  0.46268244    -0.50700
C287        C  0.25684038  0.33949719  0.40076042     0.71300
O288        O  0.24258984  0.31889057  0.41764875    -0.45600
C289        C  0.27886195  0.36961178  0.48712173     0.76000
O290        O  0.23775516  0.28794930  0.45504047    -0.57500
O291        O  0.30059877  0.37180333  0.47573865    -0.47600
O292        O  0.26181262  0.30581039  0.49471863    -0.53900
C293        C  0.31226221  0.31468535  0.44119994     0.86200
O294        O  0.28148009  0.35610433  0.40957041    -0.55800
O295        O  0.25645348  0.34837260  0.47915476    -0.59100
C296        C  0.18419421  0.33110968  0.28486643     0.87500
C297        C  0.16068784  0.30290066  0.29747646    -0.52700
C298        C  0.15842555  0.30263684  0.32835271     0.10400
C299        C  0.17947516  0.33007095  0.34359100     0.21400
C300        C  0.17790328  0.35291184  0.29753178    -0.53400
C301        C  0.17537603  0.35208689  0.32835504     0.10500
C302        C  0.21055982  0.33677524  0.30188130    -0.53000
C303        C  0.20799119  0.33638168  0.33254150     0.11100
H304        H  0.14725177  0.28523457  0.28348240     0.15600
H305        H  0.17754552  0.32968613  0.36868819     0.01400
H306        H  0.17631921  0.36783723  0.28361634     0.15900
H307        H  0.22969669  0.34095999  0.29064668     0.15700
C308        C  0.17012108  0.32936392  0.19680680     0.87500
C309        C  0.16364717  0.35050007  0.18278954    -0.52700
C310        C  0.16333417  0.35033012  0.15191781     0.10400
C311        C  0.16966999  0.32933659  0.13773145     0.21400
C312        C  0.14847081  0.30121478  0.18271582    -0.53400
C313        C  0.14837031  0.30131660  0.15184915     0.10500
C314        C  0.19823604  0.33649877  0.18210579    -0.53000
C315        C  0.19766396  0.33636525  0.15117989     0.11100
H316        H  0.15969501  0.36440760  0.19619589     0.15600
H317        H  0.16940771  0.32929614  0.11254114     0.01400
H318        H  0.13412861  0.28303851  0.19603081     0.15900
H319        H  0.21671213  0.34094370  0.19428172     0.15700
In320      In  0.18262560  0.42834012  0.44551432     1.36900
C321        C  0.22145287  0.43439542  0.48383916     0.78600
O322        O  0.21113510  0.47009686  0.42565022    -0.59800
O323        O  0.17773327  0.46536427  0.45277806    -0.50700
C324        C  0.17530042  0.40199190  0.39310978     0.71300
O325        O  0.19307458  0.40522991  0.41241354    -0.45600
C326        C  0.13960299  0.39094531  0.47713182     0.76000
O327        O  0.22361564  0.43276111  0.45567514    -0.57500
O328        O  0.14074374  0.41279832  0.46798587    -0.47600
O329        O  0.20023297  0.43461351  0.49243793    -0.53900
C330        C  0.19968425  0.48159214  0.43842114     0.86200
O331        O  0.16107044  0.41271264  0.40002349    -0.55800
O332        O  0.15906206  0.38782132  0.46822503    -0.59100
In333      In  0.27320154  0.42574187  0.54154154     1.36900
C334        C  0.24095829  0.43376536  0.50485518     0.78600
O335        O  0.28698660  0.46483708  0.56721442    -0.59800
O336        O  0.31476389  0.46554537  0.53416307    -0.50700
C337        C  0.25227357  0.39688556  0.59218330     0.71300
O338        O  0.23804820  0.40039339  0.57283140    -0.45600
C339        C  0.27832801  0.38966476  0.50781126     0.76000
O340        O  0.23634271  0.43009189  0.53286027    -0.57500
O341        O  0.29958731  0.41096976  0.51844181    -0.47600
O342        O  0.26272622  0.43480923  0.49595123    -0.53900
C343        C  0.30897779  0.47919456  0.55223430     0.86200
O344        O  0.27788848  0.40821552  0.58596318    -0.55800
O345        O  0.25542599  0.38651429  0.51597521    -0.59100
In346      In  0.07804011  0.23142173  0.44451380     1.36900
C347        C  0.07057000  0.26615802  0.47781710     0.78600
O348        O  0.03755635  0.21415805  0.42012821    -0.59800
O349        O  0.03892616  0.19090129  0.45702000    -0.50700
C350        C  0.10664259  0.25183181  0.39316606     0.71300
O351        O  0.10374724  0.26638697  0.41267849    -0.45600
C352        C  0.11385816  0.22588438  0.47848234     0.76000
O353        O  0.07246740  0.26800259  0.44942195    -0.57500
O354        O  0.09420973  0.20512802  0.46503716    -0.47600
O355        O  0.07099353  0.24581566  0.48893307    -0.53900
C356        C  0.02418212  0.19413039  0.43803528     0.86200
O357        O  0.09501786  0.22630052  0.39967936    -0.55800
O358        O  0.11543040  0.24861470  0.47326332    -0.59100
In359      In  0.08004529  0.32991462  0.53112890     1.36900
C360        C  0.07070515  0.28738201  0.49676921     0.78600
O361        O  0.04042405  0.30801838  0.55694919    -0.59800
O362        O  0.04289538  0.33387245  0.52070340    -0.50700
C363        C  0.10619880  0.33658198  0.58337967     0.71300
O364        O  0.09977739  0.31680035  0.56550733    -0.45600
C365        C  0.11823373  0.37039434  0.49722133     0.76000
O366        O  0.07342893  0.28754475  0.52500616    -0.57500
O367        O  0.09903718  0.37256768  0.50933166    -0.47600
O368        O  0.07061762  0.30807444  0.48613201    -0.53900
C369        C  0.02795515  0.31616352  0.54039893     0.86200
O370        O  0.09983582  0.35393355  0.57449888    -0.55800
O371        O  0.11835961  0.34876626  0.50395541    -0.59100
In372      In  0.07159168  0.33255779  0.94971026     1.36900
C373        C  0.06329084  0.28998645  0.98363716     0.78600
O374        O  0.11176383  0.35394393  0.97423023    -0.59800
O375        O  0.08899046  0.37448726  0.97331051    -0.50700
C376        C  0.09833655  0.33981776  0.89747229     0.71300
O377        O  0.09059243  0.31914719  0.91445701    -0.45600
C378        C  0.01860643  0.31793112  0.94193774     0.76000
O379        O  0.06503012  0.28990584  0.95528320    -0.57500
O380        O  0.03332046  0.33389079  0.96290143    -0.47600
O381        O  0.06421779  0.31105797  0.99457927    -0.53900
C382        C  0.10990102  0.37414850  0.98319912     0.86200
O383        O  0.09229327  0.35731951  0.90684066    -0.55800
O384        O  0.03173173  0.31224471  0.92315697    -0.59100
C385        C  0.16776226  0.32068094  0.69693845     0.87500
C386        C  0.16166891  0.29393313  0.68034833    -0.52700
C387        C  0.16362905  0.29652669  0.64969993     0.10400
C388        C  0.17151411  0.32534289  0.63820119     0.21400
C389        C  0.19688088  0.34327900  0.68546029    -0.53400
C390        C  0.19856607  0.34549939  0.65461355     0.10500
C391        C  0.14743900  0.32824292  0.68268776    -0.53000
C392        C  0.14968758  0.33072813  0.65183963     0.11100
H393        H  0.15665638  0.27471475  0.69186463     0.15600
H394        H  0.17314311  0.32730701  0.61313278     0.01400
H395        H  0.21417196  0.35613825  0.70015237     0.15900
H396        H  0.13258238  0.33097140  0.69566647     0.15700
C397        C  0.16891196  0.33420392  0.78535005     0.87500
C398        C  0.14706743  0.33949188  0.79992882    -0.52700
C399        C  0.14702229  0.33894900  0.83083296     0.10400
C400        C  0.16855725  0.33320096  0.84445624     0.21400
C401        C  0.19673959  0.35609558  0.79991481    -0.53400
C402        C  0.19645012  0.35542791  0.83079059     0.10500
C403        C  0.16255603  0.30606322  0.79917607    -0.53000
C404        C  0.16232816  0.30581573  0.83006684     0.11100
H405        H  0.13279706  0.34317126  0.78688090     0.15600
H406        H  0.16841100  0.33282057  0.86961353     0.01400
H407        H  0.21491914  0.37109815  0.78687745     0.15900
H408        H  0.15866484  0.28795779  0.78651182     0.15700
C409        C  0.16556783  0.31683531  0.73110780    -0.15400
C410        C  0.16979214  0.33697729  0.75082192    -0.30600
H411        H  0.16063881  0.29668093  0.73943596     0.13600
H412        H  0.17455198  0.35693436  0.74172481     0.14200
C413        C  0.11368384  0.34291882  0.87006267    -0.12200
C414        C  0.12801478  0.34231403  0.84995967    -0.13800
C415        C  0.11994666  0.33857218  0.61154309    -0.12200
C416        C  0.13251028  0.33638122  0.63244419    -0.13800
C417        C  0.23929550  0.38066568  0.61892859    -0.12200
C418        C  0.22299195  0.36540692  0.63787781    -0.13800
C419        C  0.13776645  0.27942499  0.34617321    -0.14600
C420        C  0.12250237  0.26423479  0.36592352    -0.13800
C421        C  0.17185172  0.37157229  0.34623610    -0.12200
C422        C  0.17166506  0.38645672  0.36584046    -0.13800
C423        C  0.16793505  0.32862620  0.23126536    -0.15400
C424        C  0.18784112  0.33211002  0.25071678    -0.30600
H425        H  0.14794068  0.32447664  0.24085740     0.13600
H426        H  0.20786965  0.33595487  0.24202786     0.14200
C427        C  0.22989228  0.34139539  0.35331615    -0.12200
C428        C  0.24491800  0.34302016  0.37368497    -0.13800
C429        C  0.12880088  0.27805951  0.13342999    -0.12200
C430        C  0.11337767  0.26255229  0.11408504    -0.13800
C431        C  0.16044329  0.27490091  0.62947842    -0.12200
C432        C  0.16059267  0.26009913  0.60978975    -0.13800
C433        C  0.22052624  0.34069855  0.13200143    -0.12200
C434        C  0.23570234  0.34166556  0.11195184    -0.13800
C435        C  0.15744401  0.28231222  0.84836458    -0.12200
C436        C  0.15593208  0.26618851  0.86748667    -0.13800
C437        C  0.15780340  0.38408024  0.11487000    -0.12200
C438        C  0.15865714  0.36886121  0.13359195    -0.13800
C439        C  0.23516657  0.38965608  0.86924538    -0.12200
C440        C  0.21950021  0.37468787  0.84970492    -0.13800
C441        C  0.37928251  0.21175021  0.62858249    -0.12200
C442        C  0.39405863  0.22654788  0.60843308    -0.13800
C443        C  0.34394922  0.17282360  0.73173116    -0.15400
C444        C  0.32810928  0.15343550  0.75253556    -0.30600
H445        H  0.35982068  0.19341819  0.73895239     0.13600
H446        H  0.31234294  0.13288278  0.74460586     0.14200
C447        C  0.34527288  0.10957475  0.87380574    -0.12200
C448        C  0.34317296  0.12290513  0.85371026    -0.13800
C449        C  0.38927438  0.23051906  0.86457265    -0.12200
C450        C  0.37338097  0.21352073  0.84654366    -0.13800
C451        C  0.39063569  0.14776985  0.36572469    -0.12200
C452        C  0.37627529  0.14915441  0.34628168    -0.13800
C453        C  0.34858839  0.21138106  0.34840851    -0.12200
C454        C  0.34964514  0.22692349  0.36802329    -0.13800
C455        C  0.38027009  0.16437906  0.13412783    -0.12200
C456        C  0.39548141  0.16395264  0.11504378    -0.13800
C457        C  0.33550023  0.15886514  0.24904435    -0.15400
C458        C  0.34012002  0.17933199  0.22965728    -0.30600
H459        H  0.33059864  0.13886728  0.23944540     0.13600
H460        H  0.34487591  0.19957110  0.23839812     0.14200
C461        C  0.34863494  0.23623289  0.10680868    -0.12200
C462        C  0.34781868  0.22148185  0.12713230    -0.13800
C463        C  0.27125369  0.11543880  0.11492853    -0.12200
C464        C  0.28711314  0.13055444  0.13425475    -0.13800
C465        C  0.27050497  0.10498535  0.36794503    -0.12200
C466        C  0.28573799  0.11997277  0.34804789    -0.13800
C467        C  0.34853845  0.10644316  0.61965574    -0.12200
C468        C  0.34781078  0.12137426  0.63892893    -0.13800
C469        C  0.27268391  0.15135664  0.61512766    -0.12200
C470        C  0.28790619  0.15252004  0.63517648    -0.13800
C471        C  0.26650506  0.15246869  0.86985113    -0.12200
C472        C  0.28167685  0.15195863  0.85073617    -0.13800
In473      In  0.24204353  0.66788626  0.95295154     1.36900
C474        C  0.27629528  0.70996078  0.98769850     0.78600
O475        O  0.22616504  0.69106299  0.92715028    -0.59800
O476        O  0.20184965  0.66647896  0.96412360    -0.50700
C477        C  0.26071185  0.65989949  0.90089356     0.71300
O478        O  0.27533272  0.67952169  0.91876065    -0.45600
C479        C  0.23890175  0.62740417  0.98712676     0.76000
O480        O  0.27998216  0.70998460  0.95957554    -0.57500
O481        O  0.21728375  0.62537617  0.97570268    -0.47600
O482        O  0.25435418  0.68925247  0.99770660    -0.53900
C483        C  0.20583119  0.68436059  0.94439176     0.86200
O484        O  0.23583977  0.64365182  0.90938757    -0.55800
O485        O  0.26134299  0.64893583  0.97964573    -0.59100
In486      In  0.23810249  0.66010425  0.53889931     1.36900
C487        C  0.27441440  0.70304627  0.50579476     0.78600
O488        O  0.25869260  0.64038936  0.51627661    -0.59800
O489        O  0.21452272  0.61739514  0.51611952    -0.50700
C490        C  0.25683391  0.65453494  0.59194353     0.71300
O491        O  0.27022917  0.67537501  0.57501909    -0.45600
C492        C  0.19854728  0.67284800  0.54264873     0.76000
O493        O  0.27520911  0.70349280  0.53426239    -0.57500
O494        O  0.20069787  0.66015659  0.52040074    -0.47600
O495        O  0.25428862  0.68152663  0.49451516    -0.53900
C496        C  0.23680319  0.61924154  0.50707226     0.86200
O497        O  0.23293130  0.63637936  0.58243679    -0.55800
O498        O  0.21414552  0.67583810  0.56448999    -0.59100
In499      In  0.33837086  0.56253589  0.54454546     1.36900
C500        C  0.29831407  0.55548301  0.50748347     0.78600
O501        O  0.36001784  0.60300825  0.52068239    -0.59800
O502        O  0.38158540  0.58126304  0.52373277    -0.50700
C503        C  0.34319925  0.58936218  0.59588629     0.71300
O504        O  0.32370703  0.58208824  0.57739729    -0.45600
C505        C  0.32351940  0.50960398  0.55261179     0.76000
O506        O  0.29540081  0.55413205  0.53576743    -0.57500
O507        O  0.34176568  0.52489724  0.53349532    -0.47600
O508        O  0.32058059  0.55789170  0.49808609    -0.53900
C509        C  0.38112088  0.60200795  0.51340757     0.86200
O510        O  0.36058918  0.58241667  0.58878479    -0.55800
O511        O  0.31555784  0.52210288  0.56949654    -0.59100
In512      In  0.24588669  0.56524612  0.45175485     1.36900
C513        C  0.27874930  0.55699977  0.48729312     0.78600
O514        O  0.26185776  0.60373145  0.47865505    -0.59800
O515        O  0.21792196  0.57776558  0.47586060    -0.50700
C516        C  0.26482323  0.59395610  0.40062741     0.71300
O517        O  0.28005312  0.59280371  0.42054646    -0.45600
C518        C  0.21334590  0.51182183  0.43955976     0.76000
O519        O  0.28486116  0.56492481  0.46025985    -0.57500
O520        O  0.20478501  0.52454276  0.45549511    -0.47600
O521        O  0.25546985  0.55256455  0.49608212    -0.53900
C522        C  0.23851425  0.59949030  0.48676404     0.86200
O523        O  0.23905095  0.58041060  0.40655115    -0.55800
O524        O  0.23671522  0.52697780  0.42737071    -0.59100
In525      In  0.24246655  0.56952840  0.04124833     1.36900
C526        C  0.27655852  0.56302185  0.00556123     0.78600
O527        O  0.22727655  0.52890781  0.06462587    -0.59800
O528        O  0.20097908  0.53039103  0.03146934    -0.50700
C529        C  0.25929486  0.59557561  0.09424391     0.71300
O530        O  0.27444777  0.59109380  0.07713781    -0.45600
C531        C  0.23906400  0.60689357  0.00756752     0.76000
O532        O  0.28052013  0.56693365  0.03360973    -0.57500
O533        O  0.21749296  0.58560041  0.01780712    -0.47600
O534        O  0.25462724  0.56118182  0.99601837    -0.53900
C535        C  0.20561520  0.51560741  0.04901713     0.86200
O536        O  0.23491703  0.58651622  0.08461733    -0.55800
O537        O  0.26167831  0.60955073  0.01606307    -0.59100
In538      In  0.33829773  0.76563362  0.04343646     1.36900
C539        C  0.29706071  0.73102057  0.00760288     0.78600
O540        O  0.31487511  0.78198821  0.06812264    -0.59800
O541        O  0.34113849  0.80630966  0.03208813    -0.50700
C542        C  0.34519295  0.74614642  0.09549258     0.71300
O543        O  0.32549075  0.73202113  0.07755593    -0.45600
C544        C  0.38076954  0.77016873  0.01170117     0.76000
O545        O  0.29624135  0.72783564  0.03582909    -0.57500
O546        O  0.38118651  0.79157461  0.02131402    -0.47600
O547        O  0.31818594  0.75267794  0.99778492    -0.53900
C548        C  0.32283133  0.80268096  0.05111509     0.86200
O549        O  0.36159528  0.77110481  0.08749037    -0.55800
O550        O  0.35975487  0.74746690  0.01958824    -0.59100
C551        C  0.33549410  0.66717340  0.20591845     0.87500
C552        C  0.30713576  0.64569042  0.19191538    -0.52700
C553        C  0.30730814  0.64555184  0.16098388     0.10400
C554        C  0.33536673  0.66669307  0.14683391     0.21400
C555        C  0.35630342  0.66001908  0.19158903    -0.53400
C556        C  0.35596666  0.65979802  0.16071699     0.10500
C557        C  0.34290446  0.69513911  0.19137527    -0.53000
C558        C  0.34285193  0.69477498  0.16050093     0.11100
H559        H  0.28893600  0.63153374  0.20523091     0.15600
H560        H  0.33529622  0.66649111  0.12166129     0.01400
H561        H  0.36996087  0.65533150  0.20395625     0.15900
H562        H  0.34728758  0.71335957  0.20436131     0.15700
C563        C  0.34849692  0.66568694  0.29394666     0.87500
C564        C  0.36902735  0.65968832  0.31042056    -0.52700
C565        C  0.36700932  0.65962441  0.34114632     0.10400
C566        C  0.34501282  0.66571396  0.35276305     0.21400
C567        C  0.31962249  0.64378380  0.30647372    -0.53400
C568        C  0.31791289  0.64408604  0.33726765     0.10500
C569        C  0.35442208  0.69367872  0.30723646    -0.53000
C570        C  0.35263467  0.69351105  0.33814828     0.11100
H571        H  0.38389395  0.65599697  0.29886175     0.15600
H572        H  0.34349677  0.66566184  0.37787238     0.01400
H573        H  0.30234195  0.62929794  0.29234802     0.15900
H574        H  0.35934002  0.71168624  0.29353127     0.15700
In575      In  0.33908187  0.76048649  0.45342826     1.36900
C576        C  0.29626758  0.72461786  0.48705097     0.78600
O577        O  0.35899163  0.74183372  0.47938313    -0.59800
O578        O  0.37968174  0.78597504  0.47923554    -0.50700
C579        C  0.35046159  0.74316382  0.40218928     0.71300
O580        O  0.32895909  0.72862103  0.41781229    -0.45600
C581        C  0.32271738  0.79674027  0.44380191     0.76000
O582        O  0.29777077  0.72140694  0.45908632    -0.57500
O583        O  0.34148778  0.80149423  0.46259069    -0.47600
O584        O  0.31596882  0.74687801  0.49773306    -0.53900
C585        C  0.37901791  0.76447779  0.48890895     0.86200
O586        O  0.36650098  0.76751218  0.41209890    -0.55800
O587        O  0.31494151  0.77545842  0.42786018    -0.59100
In588      In  0.43903634  0.76581519  0.95880782     1.36900
C589        C  0.44512145  0.73095680  0.99321480     0.78600
O590        O  0.47834360  0.77973028  0.93315695    -0.59800
O591        O  0.47940101  0.80671730  0.96727306    -0.50700
C592        C  0.41044867  0.74677989  0.90770142     0.71300
O593        O  0.41475430  0.73208677  0.92558270    -0.45600
C594        C  0.40218044  0.77024460  0.99249951     0.76000
O595        O  0.44254702  0.72838236  0.96493718    -0.57500
O596        O  0.42298479  0.79163318  0.98112092    -0.47600
O597        O  0.44630041  0.75230214  0.00384703    -0.53900
C598        C  0.49288203  0.80135103  0.94844875     0.86200
O599        O  0.42095354  0.77187579  0.91555798    -0.55800
O600        O  0.40039874  0.74764436  0.98587653    -0.59100
In601      In  0.43378713  0.66589617  0.04526610     1.36900
C602        C  0.44402354  0.70936250  0.01227415     0.78600
O603        O  0.47370206  0.69030187  0.07070681    -0.59800
O604        O  0.47219640  0.66388295  0.03558952    -0.50700
C605        C  0.40417542  0.65625150  0.09577479     0.71300
O606        O  0.40815341  0.67438774  0.07657825    -0.45600
C607        C  0.39799439  0.62610824  0.00835983     0.76000
O608        O  0.43977107  0.70828936  0.04036362    -0.57500
O609        O  0.41630901  0.62363355  0.02213367    -0.47600
O610        O  0.44479588  0.68909800  0.00143561    -0.53900
C611        C  0.48689426  0.68273323  0.05432287     0.86200
O612        O  0.41522366  0.64217762  0.08941367    -0.55800
O613        O  0.39738279  0.64747939  0.01505662    -0.59100
In614      In  0.33825218  0.57126702  0.94916319     1.36900
C615        C  0.29702773  0.56316030  0.98524870     0.78600
O616        O  0.30911761  0.53127281  0.92642234    -0.59800
O617        O  0.34168559  0.53281545  0.95208002    -0.50700
C618        C  0.34856148  0.60041592  0.89817863     0.71300
O619        O  0.32942084  0.59558513  0.91641291    -0.45600
C620        C  0.37832512  0.60648563  0.98607929     0.76000
O621        O  0.29719670  0.56755572  0.95732324    -0.57500
O622        O  0.37745683  0.58473070  0.97694617    -0.47600
O623        O  0.31699641  0.56108351  0.99451371    -0.53900
C624        C  0.31942234  0.51809622  0.93759021     0.86200
O625        O  0.36327111  0.59036096  0.90568851    -0.55800
O626        O  0.36027706  0.61059412  0.97473017    -0.59100
C627        C  0.33311863  0.66083647  0.70357902     0.87500
C628        C  0.33891507  0.63912386  0.68983249    -0.52700
C629        C  0.33957008  0.63928160  0.65897759     0.10400
C630        C  0.33434280  0.66093925  0.64452330     0.21400
C631        C  0.35583386  0.68894500  0.68953266    -0.53400
C632        C  0.35610784  0.68868903  0.65860743     0.10500
C633        C  0.30579178  0.65488776  0.68868030    -0.53000
C634        C  0.30658831  0.65503003  0.65781749     0.11100
H635        H  0.34190535  0.62471383  0.70335101     0.15600
H636        H  0.33482003  0.66095191  0.61934724     0.01400
H637        H  0.37031113  0.70710601  0.70197254     0.15900
H638        H  0.28770729  0.65139800  0.70141172     0.15700
C639        C  0.34265355  0.67499914  0.79178837     0.87500
C640        C  0.31378380  0.66689368  0.80454206    -0.52700
C641        C  0.31205094  0.66406822  0.83533910     0.10400
C642        C  0.33901397  0.66972038  0.85044231     0.21400
C643        C  0.36332446  0.70174368  0.80902323    -0.53400
C644        C  0.36124930  0.69879503  0.83967464     0.10500
C645        C  0.34830747  0.65263712  0.80396493    -0.53000
C646        C  0.34644903  0.65011391  0.83477682     0.11100
H647        H  0.29661887  0.66423184  0.79058898     0.15600
H648        H  0.33753716  0.66754054  0.87552741     0.01400
H649        H  0.37845575  0.72093266  0.79809182     0.15900
H650        H  0.35350739  0.64034664  0.78970209     0.15700
In651      In  0.43656215  0.76173425  0.54377604     1.36900
C652        C  0.44613070  0.72774855  0.51207866     0.78600
O653        O  0.39861304  0.74238884  0.51560541    -0.59800
O654        O  0.41893535  0.78611277  0.52224269    -0.50700
C655        C  0.40743987  0.74115211  0.59448581     0.71300
O656        O  0.41301210  0.72736794  0.57654114    -0.45600
C657        C  0.49011003  0.80023144  0.54944005     0.76000
O658        O  0.44486107  0.72677903  0.54054641    -0.57500
O659        O  0.47560275  0.80055357  0.52800132    -0.47600
O660        O  0.44358179  0.74658066  0.50017216    -0.53900
C661        C  0.39948268  0.76465715  0.50951011     0.86200
O662        O  0.41712348  0.76626318  0.58702433    -0.55800
O663        O  0.47646873  0.78303289  0.57007336    -0.59100
In664      In  0.44100957  0.66518929  0.46041402     1.36900
C665        C  0.44767039  0.70713989  0.49378460     0.78600
O666        O  0.40196121  0.64495468  0.48731550    -0.59800
O667        O  0.42263420  0.62252766  0.48227313    -0.50700
C668        C  0.41417129  0.65753884  0.40849982     0.71300
O669        O  0.42212163  0.67837713  0.42516339    -0.45600
C670        C  0.49402750  0.68048110  0.45171952     0.76000
O671        O  0.44413628  0.70599014  0.46564872    -0.57500
O672        O  0.47917346  0.66294970  0.47159912    -0.47600
O673        O  0.45012346  0.68791072  0.50484806    -0.53900
C674        C  0.40265359  0.62359689  0.49395229     0.86200
O675        O  0.42023917  0.64009607  0.41788139    -0.55800
O676        O  0.48115026  0.68785100  0.43473203    -0.59100
In677      In  0.27264452  0.93319785  0.95343260     1.36900
C678        C  0.23779842  0.94122054  0.98602378     0.78600
O679        O  0.25434810  0.89308018  0.97749211    -0.59800
O680        O  0.29850469  0.91762771  0.97621648    -0.50700
C681        C  0.25246954  0.90635998  0.90154655     0.71300
O682        O  0.23819782  0.91001023  0.92084496    -0.45600
C683        C  0.31031308  0.98664388  0.94692280     0.76000
O684        O  0.23706106  0.94036682  0.95759468    -0.57500
O685        O  0.31070031  0.97276938  0.96903004    -0.47600
O686        O  0.25696922  0.93912878  0.99771629    -0.53900
C687        C  0.27701514  0.89601636  0.98607455     0.86200
O688        O  0.27780130  0.91653328  0.90845018    -0.55800
O689        O  0.29340210  0.97251818  0.92639440    -0.59100
In690      In  0.17330473  0.93420285  0.03631173     1.36900
C691        C  0.21656085  0.94193151  0.00416851     0.78600
O692        O  0.15450064  0.89649648  0.00760590    -0.59800
O693        O  0.13071539  0.91557536  0.01455668    -0.50700
C694        C  0.16474443  0.90615604  0.08750745     0.71300
O695        O  0.18691044  0.91656355  0.07250539    -0.45600
C696        C  0.18722279  0.98669002  0.04475858     0.76000
O697        O  0.21469801  0.93783095  0.03225374    -0.57500
O698        O  0.17131192  0.97212461  0.02370673    -0.47600
O699        O  0.19738445  0.94423295  0.99273535    -0.53900
C700        C  0.13274787  0.89666504  0.00158307     0.86200
O701        O  0.14646960  0.91052553  0.07695999    -0.55800
O702        O  0.19312107  0.97359947  0.06323187    -0.59100
In703      In  0.17600743  0.73690451  0.95187815     1.36900
C704        C  0.21831094  0.77123530  0.98636140     0.78600
O705        O  0.15681541  0.75631823  0.97827614    -0.59800
O706        O  0.13298757  0.71237251  0.97383049    -0.50700
C707        C  0.16906592  0.75642288  0.89988207     0.71300
O708        O  0.18922996  0.77025513  0.91737992    -0.45600
C709        C  0.19116077  0.69961141  0.94409173     0.76000
O710        O  0.21801810  0.77493250  0.95832463    -0.57500
O711        O  0.17328183  0.69626306  0.96358745    -0.47600
O712        O  0.19787580  0.74912375  0.99646076    -0.53900
C713        C  0.13490450  0.73397951  0.98512505     0.86200
O714        O  0.15208238  0.73174916  0.90839234    -0.55800
O715        O  0.19843133  0.71983987  0.92656806    -0.59100
In716      In  0.27270456  0.83471738  0.04097214     1.36900
C717        C  0.23914739  0.79238945  0.00606987     0.78600
O718        O  0.25440173  0.85362077  0.01294228    -0.59800
O719        O  0.29830355  0.87747609  0.01870475    -0.50700
C720        C  0.25216238  0.84282691  0.09173084     0.71300
O721        O  0.23836307  0.82274107  0.07409729    -0.45600
C722        C  0.30857207  0.81827869  0.05072642     0.76000
O723        O  0.23533362  0.79244372  0.03413362    -0.57500
O724        O  0.31310573  0.83638874  0.03106826    -0.47600
O725        O  0.26098742  0.81322162  0.99604767    -0.53900
C726        C  0.27698834  0.87536558  0.00634643     0.86200
O727        O  0.27722029  0.85916971  0.08392946    -0.55800
O728        O  0.28804123  0.81163711  0.06761924    -0.59100
In729      In  0.16990244  0.72613303  0.53329687     1.36900
C730        C  0.21356119  0.76172955  0.50061276     0.78600
O731        O  0.18343703  0.70234120  0.56240901    -0.59800
O732        O  0.17229046  0.68923694  0.51715625    -0.50700
C733        C  0.16569388  0.74851549  0.58448232     0.71300
O734        O  0.18654559  0.76023765  0.56727103    -0.45600
C735        C  0.12825498  0.72288960  0.50106414     0.76000
O736        O  0.21386879  0.76183639  0.52907571    -0.57500
O737        O  0.12618264  0.70133580  0.51275270    -0.47600
O738        O  0.19171364  0.74232795  0.48887496    -0.53900
C739        C  0.18309467  0.68729808  0.54119842     0.86200
O740        O  0.14653841  0.72468590  0.57595528    -0.55800
O741        O  0.15039141  0.74516836  0.50730064    -0.59100
In742      In  0.07615697  0.73808560  0.03754201     1.36900
C743        C  0.06741359  0.77173458  0.00375024     0.78600
O744        O  0.11604710  0.75687888  0.01215439    -0.59800
O745        O  0.09264458  0.71282530  0.01525073    -0.50700
C746        C  0.10270184  0.75716482  0.08979500     0.71300
O747        O  0.09888600  0.77177138  0.07121351    -0.45600
C748        C  0.02264636  0.70061276  0.04539219     0.76000
O749        O  0.07188599  0.77528542  0.03173824    -0.57500
O750        O  0.03688663  0.69816954  0.02496313    -0.47600
O751        O  0.06638345  0.75047229  0.99319320    -0.53900
C752        C  0.11385797  0.73425279  0.00467975     0.86200
O753        O  0.09286705  0.73212612  0.08195236    -0.55800
O754        O  0.03643329  0.71983219  0.06399806    -0.59100
In755      In  0.27150976  0.82831513  0.45125109     1.36900
C756        C  0.23556437  0.78400092  0.48265041     0.78600
O757        O  0.28663321  0.80366138  0.42711049    -0.59800
O758        O  0.31239046  0.83090772  0.46165463    -0.50700
C759        C  0.25344570  0.83725695  0.39936824     0.71300
O760        O  0.23791123  0.81984351  0.41886038    -0.45600
C761        C  0.27514767  0.86873648  0.48656985     0.76000
O762        O  0.23288497  0.78636812  0.45473604    -0.57500
O763        O  0.29632479  0.87158896  0.47296649    -0.47600
O764        O  0.25747252  0.80354126  0.49426341    -0.53900
C765        C  0.30776497  0.81174977  0.44336767     0.86200
O766        O  0.27897423  0.85099527  0.40616764    -0.55800
O767        O  0.25300433  0.84620011  0.48125662    -0.59100
C768        C  0.17603114  0.82659182  0.28747789     0.87500
C769        C  0.15435091  0.79825136  0.30125748    -0.52700
C770        C  0.15391847  0.79807549  0.33211641     0.10400
C771        C  0.17503404  0.82593476  0.34654428     0.21400
C772        C  0.16909885  0.84755421  0.30191468    -0.53400
C773        C  0.16852989  0.84686646  0.33281272     0.10500
C774        C  0.20386330  0.83375128  0.30208315    -0.53000
C775        C  0.20322796  0.83350119  0.33295211     0.11100
H776        H  0.14025221  0.78020827  0.28779236     0.15600
H777        H  0.17460870  0.82558964  0.37171521     0.01400
H778        H  0.16517738  0.86181484  0.28963959     0.15900
H779        H  0.22224632  0.83834791  0.28916677     0.15700
C780        C  0.17239973  0.83806972  0.19952824     0.87500
C781        C  0.16628633  0.85870776  0.18360362    -0.52700
C782        C  0.16648060  0.85733813  0.15290495     0.10400
C783        C  0.17287057  0.83577133  0.14066573     0.21400
C784        C  0.15065810  0.80933982  0.18651362    -0.53400
C785        C  0.15113993  0.80836057  0.15558883     0.10500
C786        C  0.20053320  0.84438472  0.18616791    -0.53000
C787        C  0.20055871  0.84305400  0.15526128     0.11100
H788        H  0.16230375  0.87320401  0.19550410     0.15600
H789        H  0.17304415  0.83483712  0.11552444     0.01400
H790        H  0.13609018  0.79178114  0.20034942     0.15900
H791        H  0.21844596  0.84900358  0.19984605     0.15700
In792      In  0.17405715  0.92362874  0.44935520     1.36900
C793        C  0.21555185  0.93156070  0.48441918     0.78600
O794        O  0.19963869  0.96407027  0.42504397    -0.59800
O795        O  0.17082707  0.96195352  0.45738827    -0.50700
C796        C  0.16530688  0.89503961  0.39817981     0.71300
O797        O  0.18578897  0.90241925  0.41520089    -0.45600
C798        C  0.13382827  0.88654297  0.48521929     0.76000
O799        O  0.21534495  0.92748820  0.45639770    -0.57500
O800        O  0.13207564  0.90595386  0.47308945    -0.47600
O801        O  0.19563728  0.93360774  0.49414266    -0.53900
C802        C  0.19076963  0.97699130  0.43980299     0.86200
O803        O  0.14865427  0.90245632  0.40685612    -0.55800
O804        O  0.15487358  0.88560555  0.47757288    -0.59100
In805      In  0.27014569  0.92593627  0.54076727     1.36900
C806        C  0.23590626  0.93140963  0.50450138     0.78600
O807        O  0.28058417  0.96605040  0.56185021    -0.59800
O808        O  0.31205661  0.96611197  0.53528119    -0.50700
C809        C  0.25327286  0.89971560  0.59379116     0.71300
O810        O  0.23785101  0.90313049  0.57611247    -0.45600
C811        C  0.27488899  0.88936918  0.50685944     0.76000
O812        O  0.23161829  0.92716024  0.53247894    -0.57500
O813        O  0.29619200  0.91190837  0.51516663    -0.47600
O814        O  0.25811277  0.93365878  0.49503242    -0.53900
C815        C  0.30410246  0.98015082  0.54969019     0.86200
O816        O  0.27805607  0.90990134  0.58471521    -0.55800
O817        O  0.25220884  0.88544970  0.51712276    -0.59100
In818      In  0.07165200  0.72870626  0.44688563     1.36900
C819        C  0.06630224  0.76276903  0.48368297     0.78600
O820        O  0.03197638  0.71784580  0.42375430    -0.59800
O821        O  0.03137684  0.68685586  0.45149539    -0.50700
C822        C  0.10074176  0.74736242  0.39574364     0.71300
O823        O  0.09609383  0.76208951  0.41323717    -0.45600
C824        C  0.10750611  0.72339827  0.48131183     0.76000
O825        O  0.07060550  0.76730202  0.45572403    -0.57500
O826        O  0.08556550  0.70219723  0.47160970    -0.47600
O827        O  0.06313278  0.74006317  0.49261888    -0.53900
C828        C  0.01760965  0.69444995  0.43608543     0.86200
O829        O  0.08998620  0.72226634  0.40377173    -0.55800
O830        O  0.11102780  0.74626123  0.47247238    -0.59100
In831      In  0.07647433  0.82459299  0.54114008     1.36900
C832        C  0.06735043  0.78341389  0.50441196     0.78600
O833        O  0.03588684  0.79810493  0.56499393    -0.59800
O834        O  0.03844017  0.82822855  0.53427043    -0.50700
C835        C  0.10471152  0.83325795  0.59255504     0.71300
O836        O  0.10073512  0.81504247  0.57343251    -0.45600
C837        C  0.11354351  0.86598820  0.50652108     0.76000
O838        O  0.07015228  0.78235272  0.53253604    -0.57500
O839        O  0.09240578  0.86585570  0.51665820    -0.47600
O840        O  0.06764073  0.80471109  0.49528896    -0.53900
C841        C  0.02321005  0.80771175  0.55109124     0.86200
O842        O  0.09414845  0.84767165  0.58578123    -0.55800
O843        O  0.11622964  0.84637632  0.51578829    -0.59100
In844      In  0.07299226  0.83343816  0.94955229     1.36900
C845        C  0.06610445  0.79206611  0.98460208     0.78600
O846        O  0.11383476  0.85564557  0.97240488    -0.59800
O847        O  0.09040449  0.87555942  0.97220052    -0.50700
C848        C  0.10010004  0.83958581  0.89779189     0.71300
O849        O  0.09224136  0.81935993  0.91546865    -0.45600
C850        C  0.02014005  0.81952455  0.94320376     0.76000
O851        O  0.06532971  0.79044542  0.95620957    -0.57500
O852        O  0.03527102  0.83525907  0.96407593    -0.47600
O853        O  0.06806909  0.81375340  0.99510488    -0.53900
C854        C  0.11174693  0.87568901  0.98140596     0.86200
O855        O  0.09338658  0.85695897  0.90580166    -0.55800
O856        O  0.03277301  0.81369188  0.92388653    -0.59100
C857        C  0.17394793  0.82173252  0.70101922     0.87500
C858        C  0.16871043  0.79566911  0.68349047    -0.52700
C859        C  0.16992339  0.79881810  0.65283525     0.10400
C860        C  0.17634112  0.82748015  0.64233691     0.21400
C861        C  0.20241726  0.84539765  0.68920210    -0.53400
C862        C  0.20343517  0.84821265  0.65840026     0.10500
C863        C  0.15242238  0.82823708  0.68800996    -0.53000
C864        C  0.15392491  0.83133816  0.65722297     0.11100
H865        H  0.16444623  0.77651339  0.69431913     0.15600
H866        H  0.17734538  0.82988352  0.61729642     0.01400
H867        H  0.21990139  0.85862629  0.70378053     0.15900
H868        H  0.13721796  0.82972664  0.70177109     0.15700
C869        C  0.17491546  0.83456324  0.78970144     0.87500
C870        C  0.15191617  0.83846681  0.80355426    -0.52700
C871        C  0.15145317  0.83822082  0.83445007     0.10400
C872        C  0.17372875  0.83391170  0.84882916     0.21400
C873        C  0.20206446  0.85747402  0.80455134    -0.53400
C874        C  0.20134905  0.85693842  0.83543892     0.10500
C875        C  0.16996806  0.80707983  0.80390405    -0.53000
C876        C  0.16931961  0.80698691  0.83484358     0.11100
H877        H  0.13745953  0.84133495  0.79008580     0.15600
H878        H  0.17326483  0.83370126  0.87399886     0.01400
H879        H  0.22009507  0.87276545  0.79175602     0.15900
H880        H  0.16766681  0.78948669  0.79132573     0.15700
C881        C  0.17233897  0.81747649  0.73522956    -0.15400
C882        C  0.17605301  0.83732695  0.75515360    -0.30600
H883        H  0.16794758  0.79746833  0.74335296     0.13600
H884        H  0.18014614  0.85707664  0.74615038     0.14200
C885        C  0.11657858  0.84245381  0.87139102    -0.12200
C886        C  0.13182940  0.84153293  0.85263056    -0.13800
C887        C  0.12054947  0.83679548  0.61961994    -0.12200
C888        C  0.13511404  0.83580182  0.63910438    -0.13800
C889        C  0.24228224  0.88437760  0.62157371    -0.12200
C890        C  0.22713367  0.86903473  0.64128438    -0.13800
C891        C  0.13385501  0.77483718  0.35023634    -0.14600
C892        C  0.11786133  0.75935915  0.36928148    -0.13800
C893        C  0.16332534  0.86475125  0.35174009    -0.12200
C894        C  0.16181812  0.87893318  0.37136178    -0.13800
C895        C  0.17181798  0.84042311  0.23372282    -0.15400
C896        C  0.17697245  0.82510883  0.25299812    -0.30600
H897        H  0.16686752  0.85529100  0.24242330     0.13600
H898        H  0.18191631  0.81033004  0.24356277     0.14200
C899        C  0.22641827  0.83884304  0.35188550    -0.12200
C900        C  0.24189238  0.84048436  0.37177652    -0.13800
C901        C  0.13208554  0.78466748  0.13738903    -0.12200
C902        C  0.11775246  0.76916783  0.11742952    -0.13800
C903        C  0.16591303  0.77742631  0.63164960    -0.12200
C904        C  0.16423091  0.76222631  0.61133841    -0.13800
C905        C  0.22364534  0.84642040  0.13713952    -0.12200
C906        C  0.23925079  0.84659559  0.11808481    -0.13800
C907        C  0.16631262  0.78441471  0.85357184    -0.12200
C908        C  0.16585327  0.76900704  0.87298750    -0.13800
C909        C  0.16099946  0.88967807  0.11389693    -0.12200
C910        C  0.16203265  0.87515595  0.13328083    -0.13800
C911        C  0.23975441  0.89101683  0.87423343    -0.12200
C912        C  0.22410482  0.87636432  0.85452895    -0.13800
C913        C  0.37544889  0.71207977  0.64011443    -0.12200
C914        C  0.39068766  0.72815567  0.62096797    -0.13800
C915        C  0.33046971  0.65837421  0.73798525    -0.15400
C916        C  0.34574662  0.67904878  0.75769910    -0.30600
H917        H  0.31496857  0.63822141  0.74702525     0.13600
H918        H  0.36109739  0.69938447  0.74957042     0.14200
C919        C  0.35258819  0.61654783  0.87125173    -0.12200
C920        C  0.35129429  0.63118823  0.85209829    -0.13800
C921        C  0.39427259  0.73491066  0.88075948    -0.12200
C922        C  0.37957631  0.72029189  0.86052561    -0.13800
C923        C  0.39861790  0.65430069  0.38143748    -0.12200
C924        C  0.38462432  0.65539387  0.36142552    -0.13800
C925        C  0.35616785  0.71656848  0.35635624    -0.12200
C926        C  0.35588867  0.73167482  0.37569733    -0.13800
C927        C  0.37373959  0.65426989  0.14201951    -0.12200
C928        C  0.38804540  0.65267405  0.12260808    -0.13800
C929        C  0.35101004  0.66515560  0.25972280    -0.15400
C930        C  0.33417870  0.66817983  0.24044870    -0.30600
H931        H  0.36705912  0.66185085  0.25105959     0.13600
H932        H  0.31853511  0.67188937  0.24995945     0.14200
C933        C  0.34850426  0.73360060  0.12233757    -0.12200
C934        C  0.34751122  0.71791057  0.14170099    -0.13800
C935        C  0.27005428  0.61083157  0.12203589    -0.12200
C936        C  0.28447524  0.62577214  0.14228815    -0.13800
C937        C  0.27704512  0.60991333  0.37354827    -0.12200
C938        C  0.29351262  0.62495727  0.35459032    -0.13800
C939        C  0.34527787  0.60538101  0.62225504    -0.12200
C940        C  0.34377156  0.62026612  0.64093339    -0.13800
C941        C  0.26919486  0.65164060  0.61912640    -0.12200
C942        C  0.28430507  0.65196696  0.63873664    -0.13800
C943        C  0.27255994  0.65681903  0.87329501    -0.12200
C944        C  0.28815668  0.65849341  0.85337484    -0.13800
In945      In  0.73729599  0.16585055  0.95234403     1.36900
C946        C  0.77209368  0.20898763  0.98641130     0.78600
O947        O  0.71935451  0.18598745  0.92425189    -0.59800
O948        O  0.69832694  0.16593480  0.96478614    -0.50700
C949        C  0.75698235  0.15695602  0.90145304     0.71300
O950        O  0.77131989  0.17699323  0.91899953    -0.45600
C951        C  0.73223083  0.12418678  0.98566946     0.76000
O952        O  0.77417758  0.20916387  0.95801760    -0.57500
O953        O  0.71105905  0.12266325  0.97364655    -0.47600
O954        O  0.75148873  0.18742631  0.99724714    -0.53900
C955        C  0.70069747  0.18153739  0.94309303     0.86200
O956        O  0.73194874  0.14104821  0.90953587    -0.55800
O957        O  0.75495625  0.14595072  0.97954216    -0.59100
In958      In  0.74544408  0.16399631  0.53597225     1.36900
C959        C  0.78048532  0.20581243  0.50058537     0.78600
O960        O  0.76512938  0.14451471  0.51116022    -0.59800
O961        O  0.72102390  0.12074197  0.51486770    -0.50700
C962        C  0.76549538  0.15876638  0.58854250     0.71300
O963        O  0.77863500  0.17899899  0.57085390    -0.45600
C964        C  0.70674027  0.17767811  0.54200239     0.76000
O965        O  0.78253816  0.20673886  0.52895333    -0.57500
O966        O  0.70486836  0.16059664  0.52235800    -0.47600
O967        O  0.75954171  0.18431221  0.49032807    -0.53900
C968        C  0.74284048  0.12279802  0.50387897     0.86200
O969        O  0.74127643  0.14066515  0.57984383    -0.55800
O970        O  0.72623091  0.18494242  0.56051987    -0.59100
In971      In  0.84235865  0.06994230  0.54610636     1.36900
C972        C  0.80214514  0.06172140  0.50878636     0.78600
O973        O  0.86441241  0.10878658  0.51943604    -0.59800
O974        O  0.88411573  0.08528035  0.52256394    -0.50700
C975        C  0.85130713  0.09899174  0.59690249     0.71300
O976        O  0.83310018  0.09494693  0.57776877    -0.45600
C977        C  0.82330897  0.01655801  0.55725396     0.76000
O978        O  0.80136422  0.06593992  0.53664676    -0.57500
O979        O  0.84418580  0.03077766  0.54044701    -0.47600
O980        O  0.82245778  0.05981010  0.50033306    -0.53900
C981        C  0.88426959  0.10602096  0.51122246     0.86200
O982        O  0.86542169  0.08800232  0.59046962    -0.55800
O983        O  0.81455093  0.03027008  0.57062199    -0.59100
In984      In  0.74872665  0.06639505  0.44982640     1.36900
C985        C  0.78229072  0.06143703  0.48758719     0.78600
O986        O  0.76626064  0.10699479  0.47295079    -0.59800
O987        O  0.72237988  0.07966496  0.47566074    -0.50700
C988        C  0.76575639  0.09275891  0.39696330     0.71300
O989        O  0.78113511  0.08924044  0.41460220    -0.45600
C990        C  0.71406734  0.01227154  0.44109641     0.76000
O991        O  0.78712604  0.06516456  0.45960832    -0.57500
O992        O  0.70616711  0.02705731  0.45390790    -0.47600
O993        O  0.75990341  0.05928916  0.49611882    -0.53900
C994        C  0.74349103  0.10246403  0.48365213     0.86200
O995        O  0.74096857  0.08255603  0.40595693    -0.55800
O996        O  0.73830089  0.02558241  0.43041956    -0.59100
In997      In  0.73616999  0.06705188  0.04049005     1.36900
C998        C  0.76993679  0.05979249  0.00520559     0.78600
O999        O  0.72441382  0.02878464  0.06688254    -0.59800
O1000       O  0.69496676  0.02636548  0.03525347    -0.50700
C1001       C  0.75488544  0.09589109  0.09153638     0.71300
O1002       O  0.76922059  0.09020765  0.07458870    -0.45600
C1003       C  0.73195452  0.10314676  0.00551061     0.76000
O1004       O  0.77547314  0.06757582  0.03228903    -0.57500
O1005       O  0.71040597  0.08211132  0.01626234    -0.47600
O1006       O  0.74646702  0.05455460  0.99618735    -0.53900
C1007       C  0.70191905  0.01361724  0.05324370     0.86200
O1008       O  0.73015177  0.08650557  0.08285414    -0.55800
O1009       O  0.75455427  0.10555991  0.01342435    -0.59100
In1010     In  0.83619769  0.26693261  0.03900352     1.36900
C1011       C  0.79331686  0.23091390  0.00548599     0.78600
O1012       O  0.81128494  0.28179867  0.06339691    -0.59800
O1013       O  0.83959983  0.30852125  0.03004569    -0.50700
C1014       C  0.84563706  0.24881773  0.09087444     0.71300
O1015       O  0.82596273  0.23403846  0.07323965    -0.45600
C1016       C  0.87678356  0.27055438  0.00396560     0.76000
O1017       O  0.79460626  0.22778221  0.03350608    -0.57500
O1018       O  0.87814870  0.29216005  0.01445991    -0.47600
O1019       O  0.81295516  0.25337416  0.99489543    -0.53900
C1020       C  0.82017173  0.30364613  0.04810476     0.86200
O1021       O  0.86115414  0.27382217  0.08250858    -0.55800
O1022       O  0.85572535  0.24811884  0.01229527    -0.59100
C1023       C  0.83481308  0.16841400  0.20016188     0.87500
C1024       C  0.80634812  0.14725236  0.18636416    -0.52700
C1025       C  0.80603373  0.14766416  0.15551481     0.10400
C1026       C  0.83394345  0.16901681  0.14110822     0.21400
C1027       C  0.85554849  0.16163580  0.18481633    -0.53400
C1028       C  0.85478926  0.16192694  0.15390085     0.10500
C1029       C  0.84215099  0.19669766  0.18649737    -0.53000
C1030       C  0.84184204  0.19693945  0.15560407     0.11100
H1031       H  0.78832815  0.13285871  0.19978699     0.15600
H1032       H  0.83349975  0.16923836  0.11595014     0.01400
H1033       H  0.86962931  0.15714831  0.19658977     0.15900
H1034       H  0.84700617  0.21477174  0.20006145     0.15700
C1035       C  0.84629766  0.16326405  0.28783246     0.87500
C1036       C  0.86613174  0.15616823  0.30406719    -0.52700
C1037       C  0.86422582  0.15604693  0.33480609     0.10400
C1038       C  0.84314466  0.16327807  0.34666429     0.21400
C1039       C  0.81716172  0.14199973  0.30047863    -0.53400
C1040       C  0.81572978  0.14225259  0.33135678     0.10500
C1041       C  0.85332160  0.19152788  0.30126867    -0.53000
C1042       C  0.85168203  0.19135421  0.33213468     0.11100
H1043       H  0.88038152  0.15169806  0.29235129     0.15600
H1044       H  0.84182656  0.16326036  0.37179143     0.01400
H1045       H  0.79971181  0.12768743  0.28643796     0.15900
H1046       H  0.85894862  0.20979067  0.28766975     0.15700
In1047     In  0.84444634  0.26261794  0.44678114     1.36900
C1048       C  0.80200570  0.22697117  0.48111250     0.78600
O1049       O  0.86535772  0.24499452  0.47217472    -0.59800
O1050       O  0.88690891  0.28912748  0.46876083    -0.50700
C1051       C  0.85345428  0.24323028  0.39588945     0.71300
O1052       O  0.83213220  0.22966069  0.41212807    -0.45600
C1053       C  0.82847884  0.29929907  0.43909807     0.76000
O1054       O  0.80216072  0.22428952  0.45284171    -0.57500
O1055       O  0.84363648  0.30080750  0.46078594    -0.47600
O1056       O  0.82286699  0.24839031  0.49160181    -0.53900
C1057       C  0.88630957  0.26794302  0.47939553     0.86200
O1058       O  0.87049062  0.26765098  0.40498361    -0.55800
O1059       O  0.82469238  0.28156156  0.41935106    -0.59100
In1060     In  0.93435254  0.26559234  0.95020777     1.36900
C1061       C  0.94121739  0.23053005  0.98374134     0.78600
O1062       O  0.97376366  0.28517355  0.92261835    -0.59800
O1063       O  0.97437752  0.30463263  0.96378643    -0.50700
C1064       C  0.90601716  0.24505134  0.89896807     0.71300
O1065       O  0.91238817  0.23162401  0.91645466    -0.45600
C1066       C  0.89747694  0.27018024  0.98384421     0.76000
O1067       O  0.93961670  0.22880821  0.95534714    -0.57500
O1068       O  0.91798304  0.29137162  0.97182892    -0.47600
O1069       O  0.94090240  0.25095417  0.99477063    -0.53900
C1070       C  0.98813861  0.30328950  0.94205267     0.86200
O1071       O  0.91428865  0.26966890  0.90729903    -0.55800
O1072       O  0.89560858  0.24749806  0.97738441    -0.59100
In1073     In  0.93170878  0.16643502  0.03665839     1.36900
C1074       C  0.94072238  0.20911900  0.00269150     0.78600
O1075       O  0.97151352  0.18777747  0.06271502    -0.59800
O1076       O  0.96982425  0.16452449  0.02427266    -0.50700
C1077       C  0.90289096  0.15863497  0.08769655     0.71300
O1078       O  0.91125663  0.17936042  0.07068008    -0.45600
C1079       C  0.89423383  0.12525004  0.00280259     0.76000
O1080       O  0.93735182  0.20853255  0.03089635    -0.57500
O1081       O  0.91297534  0.12327217  0.01623866    -0.47600
O1082       O  0.94124289  0.18867908  0.99196217    -0.53900
C1083       C  0.98458208  0.18149104  0.04452372     0.86200
O1084       O  0.90953236  0.14136489  0.07915546    -0.55800
O1085       O  0.89436311  0.14730003  0.00783850    -0.59100
In1086     In  0.83162915  0.06574097  0.95030394     1.36900
C1087       C  0.79034676  0.05911067  0.98550837     0.78600
O1088       O  0.80724692  0.02419571  0.92835622    -0.59800
O1089       O  0.83691561  0.02930144  0.96112090    -0.50700
C1090       C  0.84058196  0.09304922  0.89844830     0.71300
O1091       O  0.81946543  0.08524129  0.91471921    -0.45600
C1092       C  0.87317280  0.10401834  0.98299630     0.76000
O1093       O  0.78862335  0.05849336  0.95712202    -0.57500
O1094       O  0.87279472  0.08235845  0.97449865    -0.47600
O1095       O  0.81219625  0.06127402  0.99575114    -0.53900
C1096       C  0.81715720  0.01290095  0.94423758     0.86200
O1097       O  0.85728888  0.08604856  0.90784329    -0.55800
O1098       O  0.85342076  0.10636315  0.97342915    -0.59100
C1099       C  0.84603327  0.17648449  0.70047958     0.87500
C1100       C  0.85194209  0.15385776  0.68965196    -0.52700
C1101       C  0.85121646  0.15103000  0.65883129     0.10400
C1102       C  0.84473172  0.17071221  0.64183575     0.21400
C1103       C  0.86748640  0.20301027  0.68328440    -0.53400
C1104       C  0.86663080  0.19983662  0.65268559     0.10500
C1105       C  0.81774173  0.16837796  0.68615790    -0.53000
C1106       C  0.81724254  0.16529972  0.65539076     0.11100
H1107       H  0.85608942  0.14129122  0.70485827     0.15600
H1108       H  0.84421491  0.16831859  0.61681112     0.01400
H1109       H  0.88216893  0.22245753  0.69431039     0.15900
H1110       H  0.80008378  0.16581743  0.69904361     0.15700
C1111       C  0.83387833  0.16413368  0.78931531     0.87500
C1112       C  0.80609215  0.15726584  0.80423423    -0.52700
C1113       C  0.80684525  0.15781042  0.83516512     0.10400
C1114       C  0.83493380  0.16507231  0.84843245     0.21400
C1115       C  0.85580711  0.19275622  0.80301959    -0.53400
C1116       C  0.85605367  0.19292575  0.83397162     0.10500
C1117       C  0.84062498  0.14334330  0.80367198    -0.53000
C1118       C  0.84117490  0.14397209  0.83449867     0.11100
H1119       H  0.78768908  0.15262991  0.79148091     0.15600
H1120       H  0.83534304  0.16536487  0.87360459     0.01400
H1121       H  0.87004642  0.21112240  0.79014452     0.15900
H1122       H  0.84401046  0.12898776  0.79060116     0.15700
In1123     In  0.94450855  0.26570248  0.53293446     1.36900
C1124       C  0.95212486  0.23087965  0.50006110     0.78600
O1125       O  0.90604173  0.24624971  0.50620792    -0.59800
O1126       O  0.92802818  0.29042503  0.50992729    -0.50700
C1127       C  0.91609300  0.24752431  0.58438811     0.71300
O1128       O  0.92161332  0.23297907  0.56761428    -0.45600
C1129       C  0.99776671  0.30224761  0.54109702     0.76000
O1130       O  0.94983887  0.22920604  0.52841460    -0.57500
O1131       O  0.98388937  0.30612172  0.52150479    -0.47600
O1132       O  0.95204877  0.25127021  0.48848791    -0.53900
C1133       C  0.90756161  0.26861136  0.49893498     0.86200
O1134       O  0.92532572  0.27209956  0.57523544    -0.55800
O1135       O  0.98372282  0.28224373  0.55877071    -0.59100
In1136     In  0.94134408  0.16430202  0.45136600     1.36900
C1137       C  0.95176886  0.20909134  0.48198877     0.78600
O1138       O  0.90431078  0.14675173  0.48129295    -0.59800
O1139       O  0.92395746  0.12330242  0.47728854    -0.50700
C1140       C  0.91129948  0.15329178  0.40133196     0.71300
O1141       O  0.91841445  0.17405214  0.41784171    -0.45600
C1142       C  0.99378150  0.17926038  0.43969490     0.76000
O1143       O  0.94627449  0.20640092  0.45418840    -0.57500
O1144       O  0.97983328  0.16204406  0.46024822    -0.47600
O1145       O  0.95411793  0.18999731  0.49359813    -0.53900
C1146       C  0.90496068  0.12572910  0.48954030     0.86200
O1147       O  0.91948884  0.13732149  0.41012720    -0.55800
O1148       O  0.98006318  0.18599598  0.42321558    -0.59100
In1149     In  0.76974966  0.43312633  0.94826735     1.36900
C1150       C  0.73453869  0.43958977  0.98221046     0.78600
O1151       O  0.75137473  0.39318044  0.97293248    -0.59800
O1152       O  0.79553569  0.41801742  0.97214430    -0.50700
C1153       C  0.75157513  0.40638597  0.89592850     0.71300
O1154       O  0.73665816  0.41005009  0.91421441    -0.45600
C1155       C  0.80625858  0.48702427  0.94158033     0.76000
O1156       O  0.73265305  0.43772129  0.95386158    -0.57500
O1157       O  0.81101064  0.47222798  0.95896214    -0.47600
O1158       O  0.75489920  0.43910935  0.99315269    -0.53900
C1159       C  0.77405629  0.39631931  0.98187939     0.86200
O1160       O  0.77663422  0.41672905  0.90392462    -0.55800
O1161       O  0.78502413  0.47375532  0.92537982    -0.59100
In1162     In  0.67100887  0.43267959  0.03432344     1.36900
C1163       C  0.71351923  0.44002052  0.00111756     0.78600
O1164       O  0.65204905  0.39536778  0.00537144    -0.59800
O1165       O  0.62842688  0.41463412  0.01177279    -0.50700
C1166       C  0.66032639  0.40378258  0.08511474     0.71300
O1167       O  0.68070334  0.40998502  0.06817798    -0.45600
C1168       C  0.68850275  0.48579853  0.04575629     0.76000
O1169       O  0.71153175  0.43470830  0.02898305    -0.57500
O1170       O  0.67114462  0.47241799  0.02517317    -0.47600
O1171       O  0.69484547  0.44363752  0.99054568    -0.53900
C1172       C  0.63038768  0.39554154  0.99906692     0.86200
O1173       O  0.64476728  0.41249479  0.07645478    -0.55800
O1174       O  0.69456390  0.47142463  0.06204190    -0.59100
In1175     In  0.67300964  0.23577472  0.94991154     1.36900
C1176       C  0.71508698  0.27097317  0.98511162     0.78600
O1177       O  0.65189634  0.25434595  0.97348430    -0.59800
O1178       O  0.63079847  0.21019136  0.97349096    -0.50700
C1179       C  0.66617277  0.25520219  0.89752105     0.71300
O1180       O  0.68693736  0.26861731  0.91442103    -0.45600
C1181       C  0.68654466  0.19723049  0.94249695     0.76000
O1182       O  0.71617507  0.27284290  0.95671731    -0.57500
O1183       O  0.67050504  0.19575830  0.96327394    -0.47600
O1184       O  0.69343351  0.25018851  0.99538877    -0.53900
C1185       C  0.63146358  0.23181211  0.98278170     0.86200
O1186       O  0.64838300  0.23111864  0.90700546    -0.55800
O1187       O  0.69281114  0.21626874  0.92357261    -0.59100
In1188     In  0.76992165  0.33595400  0.03862878     1.36900
C1189       C  0.73592004  0.29264769  0.00466865     0.78600
O1190       O  0.75167529  0.35385930  0.00874830    -0.59800
O1191       O  0.79532883  0.37847706  0.01560003    -0.50700
C1192       C  0.75057706  0.34612854  0.08930231     0.71300
O1193       O  0.73580373  0.32679841  0.07121988    -0.45600
C1194       C  0.80574098  0.31920079  0.04831799     0.76000
O1195       O  0.73179629  0.29376738  0.03254041    -0.57500
O1196       O  0.81120225  0.33870451  0.03017425    -0.47600
O1197       O  0.75821510  0.31287584  0.99452370    -0.53900
C1198       C  0.77410472  0.37586559  0.00248147     0.86200
O1199       O  0.77598225  0.36072670  0.08197925    -0.55800
O1200       O  0.78418183  0.31119519  0.06398728    -0.59100
In1201     In  0.67353046  0.22695286  0.53053086     1.36900
C1202       C  0.71652933  0.26278388  0.49754819     0.78600
O1203       O  0.69635574  0.21163383  0.55792337    -0.59800
O1204       O  0.67361406  0.18746615  0.52014366    -0.50700
C1205       C  0.66626118  0.24730254  0.58126502     0.71300
O1206       O  0.68530633  0.26148248  0.56256351    -0.45600
C1207       C  0.63125902  0.22147514  0.49761348     0.76000
O1208       O  0.71553409  0.26497822  0.52574372    -0.57500
O1209       O  0.63058959  0.20031544  0.50848771    -0.47600
O1210       O  0.69612950  0.24142362  0.48617148    -0.53900
C1211       C  0.69082601  0.19164301  0.54073733     0.86200
O1212       O  0.65024213  0.22199907  0.57432251    -0.55800
O1213       O  0.65246336  0.24428977  0.50459480    -0.59100
In1214     In  0.57494965  0.23748647  0.03733845     1.36900
C1215       C  0.56607525  0.27055974  0.00253778     0.78600
O1216       O  0.61376557  0.25501263  0.01075182    -0.59800
O1217       O  0.59003568  0.21100334  0.01454826    -0.50700
C1218       C  0.60235629  0.25667637  0.08935832     0.71300
O1219       O  0.60172128  0.27187993  0.06895084    -0.45600
C1220       C  0.52121680  0.20249294  0.04598173     0.76000
O1221       O  0.57191741  0.27532699  0.03019497    -0.57500
O1222       O  0.53501274  0.19692147  0.02783257    -0.47600
O1223       O  0.56378352  0.24843632  0.99289930    -0.53900
C1224       C  0.61101843  0.23219097  0.00319563     0.86200
O1225       O  0.58906129  0.23093258  0.08341343    -0.55800
O1226       O  0.53550157  0.22345756  0.06235606    -0.59100
In1227     In  0.77466909  0.32798467  0.44687765     1.36900
C1228       C  0.73857868  0.28464021  0.47938573     0.78600
O1229       O  0.79415233  0.30820526  0.42017734    -0.59800
O1230       O  0.81401904  0.32897578  0.46062090    -0.50700
C1231       C  0.75514641  0.33583663  0.39544741     0.71300
O1232       O  0.74142648  0.31525495  0.41254427    -0.45600
C1233       C  0.77770435  0.36887195  0.48065188     0.76000
O1234       O  0.73778516  0.28471946  0.45096589    -0.57500
O1235       O  0.79947290  0.37038739  0.47026601    -0.47600
O1236       O  0.75875203  0.30591066  0.49108548    -0.53900
C1237       C  0.81277162  0.31353870  0.43928016     0.86200
O1238       O  0.77975202  0.35285029  0.40406550    -0.55800
O1239       O  0.75535083  0.34759946  0.47256592    -0.59100
C1240       C  0.67613015  0.32756622  0.28575853     0.87500
C1241       C  0.65424862  0.29915989  0.29932475    -0.52700
C1242       C  0.65397361  0.29861497  0.33021293     0.10400
C1243       C  0.67550468  0.32625259  0.34482979     0.21400
C1244       C  0.66976613  0.34867535  0.30076764    -0.53400
C1245       C  0.66942629  0.34771137  0.33164692     0.10500
C1246       C  0.70394140  0.33414815  0.29999748    -0.53000
C1247       C  0.70350536  0.33350252  0.33089132     0.11100
H1248       H  0.63999235  0.28131660  0.28570156     0.15600
H1249       H  0.67524532  0.32566710  0.36999114     0.01400
H1250       H  0.66631141  0.36341079  0.28884530     0.15900
H1251       H  0.72214189  0.33860135  0.28682035     0.15700
C1252       C  0.67115764  0.33927180  0.19811384     0.87500
C1253       C  0.66303895  0.35844585  0.18220499    -0.52700
C1254       C  0.66297020  0.35682408  0.15148634     0.10400
C1255       C  0.67111949  0.33653400  0.13926995     0.21400
C1256       C  0.65062141  0.30997426  0.18545458    -0.53400
C1257       C  0.65077723  0.30875017  0.15454558     0.10500
C1258       C  0.69971471  0.34739699  0.18439344    -0.53000
C1259       C  0.69948866  0.34582476  0.15350617     0.11100
H1260       H  0.65801716  0.37219646  0.19411162     0.15600
H1261       H  0.67108213  0.33541107  0.11413512     0.01400
H1262       H  0.63686743  0.29222343  0.19953178     0.15900
H1263       H  0.71809860  0.35331693  0.19784232     0.15700
In1264     In  0.67468219  0.42534373  0.44807454     1.36900
C1265       C  0.71669205  0.43374660  0.48229848     0.78600
O1266       O  0.69706169  0.46654297  0.42388488    -0.59800
O1267       O  0.67144210  0.46282403  0.46084979    -0.50700
C1268       C  0.66733199  0.39701659  0.39691721     0.71300
O1269       O  0.68722013  0.40402667  0.41476317    -0.45600
C1270       C  0.63389546  0.38642128  0.48180232     0.76000
O1271       O  0.71760668  0.43308010  0.45386265    -0.57500
O1272       O  0.63136489  0.40511698  0.46898981    -0.47600
O1273       O  0.69527394  0.43231153  0.49313001    -0.53900
C1274       C  0.68927449  0.47865609  0.44167127     0.86200
O1275       O  0.65082885  0.40493136  0.40458371    -0.55800
O1276       O  0.65616264  0.38717260  0.47600545    -0.59100
In1277     In  0.77199013  0.42591870  0.53470426     1.36900
C1278       C  0.73749629  0.43333087  0.50128650     0.78600
O1279       O  0.78718017  0.46549829  0.56032260    -0.59800
O1280       O  0.81171994  0.46641773  0.52335553    -0.50700
C1281       C  0.75292203  0.39815437  0.58669257     0.71300
O1282       O  0.73788537  0.40056365  0.56745628    -0.45600
C1283       C  0.77709515  0.38950264  0.50066387     0.76000
O1284       O  0.73399980  0.42872132  0.52928602    -0.57500
O1285       O  0.79821424  0.41037564  0.51215576    -0.47600
O1286       O  0.75917011  0.43526983  0.49055487    -0.53900
C1287       C  0.80731272  0.48003492  0.54289553     0.86200
O1288       O  0.77843759  0.41003869  0.57964041    -0.55800
O1289       O  0.75427248  0.38711628  0.50771916    -0.59100
In1290     In  0.57275572  0.22547826  0.44503137     1.36900
C1291       C  0.56677494  0.25992918  0.48072164     0.78600
O1292       O  0.53311432  0.21081549  0.41954179    -0.59800
O1293       O  0.53235302  0.18459985  0.45426747    -0.50700
C1294       C  0.60134054  0.24584917  0.39360857     0.71300
O1295       O  0.59480032  0.25924055  0.41096492    -0.45600
C1296       C  0.60986133  0.22116537  0.47826575     0.76000
O1297       O  0.57120237  0.26388392  0.45274103    -0.57500
O1298       O  0.58899343  0.19971014  0.46722182    -0.47600
O1299       O  0.56405230  0.23762616  0.49044437    -0.53900
C1300       C  0.51862632  0.18962048  0.43556651     0.86200
O1301       O  0.59270945  0.22112536  0.40186724    -0.55800
O1302       O  0.61168287  0.24370960  0.47129829    -0.59100
In1303     In  0.57591570  0.32287929  0.53564533     1.36900
C1304       C  0.56716197  0.28085357  0.50047882     0.78600
O1305       O  0.53467765  0.29890958  0.55920086    -0.59800
O1306       O  0.53926982  0.32799423  0.52581130    -0.50700
C1307       C  0.60363483  0.33061759  0.58717096     0.71300
O1308       O  0.60041626  0.31315564  0.56740960    -0.45600
C1309       C  0.61323032  0.36501092  0.50205277     0.76000
O1310       O  0.56712376  0.27934826  0.52887790    -0.57500
O1311       O  0.59132862  0.36388759  0.51107976    -0.47600
O1312       O  0.56972456  0.30288247  0.49024962    -0.53900
C1313       C  0.52310823  0.30858319  0.54332691     0.86200
O1314       O  0.59271805  0.34479678  0.58089008    -0.55800
O1315       O  0.61643431  0.34582919  0.51171444    -0.59100
In1316     In  0.57253233  0.33136956  0.94601607     1.36900
C1317       C  0.56477378  0.29047560  0.98257349     0.78600
O1318       O  0.61270080  0.35477708  0.96981145    -0.59800
O1319       O  0.58784739  0.37311737  0.96950305    -0.50700
C1320       C  0.60168795  0.33888033  0.89551730     0.71300
O1321       O  0.59730539  0.32103454  0.91530413    -0.45600
C1322       C  0.51973089  0.31542270  0.93446520     0.76000
O1323       O  0.56471243  0.28850161  0.95422976    -0.57500
O1324       O  0.53403334  0.33416004  0.95349989    -0.47600
O1325       O  0.56619039  0.31218054  0.99224507    -0.53900
C1326       C  0.60965887  0.37423153  0.97883018     0.86200
O1327       O  0.59109084  0.35350021  0.90117070    -0.55800
O1328       O  0.53309081  0.30703930  0.91967211    -0.59100
C1329       C  0.67403772  0.32112168  0.69609190     0.87500
C1330       C  0.66896523  0.29486586  0.67921049    -0.52700
C1331       C  0.66932175  0.29715711  0.64854843     0.10400
C1332       C  0.67498012  0.32529072  0.63718971     0.21400
C1333       C  0.70205581  0.34489204  0.68316953    -0.53400
C1334       C  0.70232914  0.34683692  0.65220582     0.10500
C1335       C  0.65180980  0.32671364  0.68321716    -0.53000
C1336       C  0.65260973  0.32901475  0.65232445     0.11100
H1337       H  0.66531271  0.27609970  0.69048110     0.15600
H1338       H  0.67530305  0.32692075  0.61207795     0.01400
H1339       H  0.71980668  0.35868347  0.69712977     0.15900
H1340       H  0.63671161  0.32823294  0.69713760     0.15700
C1341       C  0.67431112  0.33315964  0.78532024     0.87500
C1342       C  0.65180942  0.33758002  0.79978175    -0.52700
C1343       C  0.65186789  0.33744166  0.83070976     0.10400
C1344       C  0.67403731  0.33274069  0.84450492     0.21400
C1345       C  0.70180319  0.35578237  0.79975524    -0.53400
C1346       C  0.70155907  0.35538660  0.83060904     0.10500
C1347       C  0.66892703  0.30542983  0.79953632    -0.53000
C1348       C  0.66873669  0.30549720  0.83057836     0.11100
H1349       H  0.63730155  0.34066259  0.78670310     0.15600
H1350       H  0.67399026  0.33271503  0.86968372     0.01400
H1351       H  0.71965910  0.37102054  0.78669031     0.15900
H1352       H  0.66555177  0.28746375  0.78684880     0.15700
C1353       C  0.67299433  0.31712426  0.73047375    -0.15400
C1354       C  0.67525589  0.33620822  0.75067711    -0.30600
H1355       H  0.67003124  0.29763915  0.73864393     0.13600
H1356       H  0.67835412  0.35566335  0.74190522     0.14200
C1357       C  0.61795604  0.34184630  0.86891960    -0.12200
C1358       C  0.63274793  0.34094922  0.84955538    -0.13800
C1359       C  0.61896683  0.33362957  0.61446306    -0.12200
C1360       C  0.63335161  0.33276950  0.63423421    -0.13800
C1361       C  0.74088144  0.38240556  0.61416785    -0.12200
C1362       C  0.72559411  0.36725816  0.63402049    -0.13800
C1363       C  0.63405559  0.27505778  0.34825802    -0.14600
C1364       C  0.61831437  0.25897178  0.36717139    -0.13800
C1365       C  0.66516723  0.36606122  0.35091429    -0.12200
C1366       C  0.66413882  0.38066415  0.37037099    -0.13800
C1367       C  0.67083435  0.34154897  0.23234599    -0.15400
C1368       C  0.67685235  0.32657398  0.25121547    -0.30600
H1369       H  0.66507663  0.35571888  0.24136535     0.13600
H1370       H  0.68215469  0.31221776  0.24133913     0.14200
C1371       C  0.72669727  0.33811305  0.34950545    -0.12200
C1372       C  0.74249844  0.33926547  0.36878559    -0.13800
C1373       C  0.63197740  0.28458666  0.13670664    -0.12200
C1374       C  0.61749390  0.26876692  0.11699520    -0.13800
C1375       C  0.66506620  0.27529967  0.62813237    -0.12200
C1376       C  0.66358314  0.25998309  0.60816986    -0.13800
C1377       C  0.72290378  0.35037416  0.13512661    -0.12200
C1378       C  0.73840159  0.35069822  0.11582077    -0.13800
C1379       C  0.66460406  0.28263728  0.84974559    -0.12200
C1380       C  0.66339503  0.26750508  0.87001597    -0.13800
C1381       C  0.65583727  0.38760986  0.11194445    -0.12200
C1382       C  0.65715933  0.37358946  0.13172924    -0.13800
C1383       C  0.73973208  0.39060851  0.86869851    -0.12200
C1384       C  0.72435197  0.37531947  0.84922910    -0.13800
C1385       C  0.88522996  0.22139057  0.63188555    -0.12200
C1386       C  0.89991936  0.23596486  0.61151480    -0.13800
C1387       C  0.84774377  0.18108097  0.73463551    -0.15400
C1388       C  0.83171262  0.16099450  0.75479335    -0.30600
H1389       H  0.86306600  0.20160291  0.74259849     0.13600
H1390       H  0.81644977  0.14059204  0.74608372     0.14200
C1391       C  0.84511035  0.10976773  0.87203565    -0.12200
C1392       C  0.84498688  0.12507286  0.85300164    -0.13800
C1393       C  0.88991600  0.23223433  0.87204805    -0.12200
C1394       C  0.87515936  0.21647982  0.85243331    -0.13800
C1395       C  0.89488351  0.14898073  0.37473993    -0.12200
C1396       C  0.88099563  0.15048253  0.35490471    -0.13800
C1397       C  0.85659228  0.21488421  0.35032208    -0.12200
C1398       C  0.85756151  0.23068821  0.36951906    -0.13800
C1399       C  0.87245416  0.15695117  0.13418990    -0.12200
C1400       C  0.88657907  0.15549427  0.11436861    -0.13800
C1401       C  0.84883642  0.16306327  0.25358842    -0.15400
C1402       C  0.83344458  0.16849776  0.23470893    -0.30600
H1403       H  0.86375186  0.15826815  0.24457351     0.13600
H1404       H  0.81864380  0.17321074  0.24461529     0.14200
C1405       C  0.84940545  0.23685683  0.11798205    -0.12200
C1406       C  0.84763649  0.22081806  0.13738551    -0.13800
C1407       C  0.76697938  0.11262022  0.11814927    -0.12200
C1408       C  0.78262465  0.12814422  0.13730952    -0.13800
C1409       C  0.77672247  0.10803315  0.36919916    -0.12200
C1410       C  0.79188716  0.12283695  0.34922230    -0.13800
C1411       C  0.85532191  0.11548128  0.62356284    -0.12200
C1412       C  0.85502121  0.13090759  0.64246329    -0.13800
C1413       C  0.77827183  0.15693326  0.61602463    -0.12200
C1414       C  0.79393292  0.15931494  0.63614965    -0.13800
C1415       C  0.76913347  0.15298501  0.87458516    -0.12200
C1416       C  0.78412170  0.15350160  0.85456391    -0.13800
In1417     In  0.74183933  0.66885320  0.95448969     1.36900
C1418       C  0.77578036  0.71154345  0.98894867     0.78600
O1419       O  0.72550814  0.69260294  0.93095118    -0.59800
O1420       O  0.70014618  0.66436460  0.96519505    -0.50700
C1421       C  0.76120371  0.66107293  0.90271753     0.71300
O1422       O  0.77624242  0.67894847  0.92204930    -0.45600
C1423       C  0.73780094  0.62792071  0.98847146     0.76000
O1424       O  0.77811267  0.71243970  0.96056267    -0.57500
O1425       O  0.71634040  0.62647991  0.97745490    -0.47600
O1426       O  0.75528879  0.68969105  0.99936846    -0.53900
C1427       C  0.70415965  0.68353402  0.94727570     0.86200
O1428       O  0.73569378  0.64657838  0.90957472    -0.55800
O1429       O  0.76044686  0.64905488  0.98068085    -0.59100
In1430     In  0.73934507  0.66073779  0.54532950     1.36900
C1431       C  0.77446109  0.70384185  0.51158338     0.78600
O1432       O  0.75712682  0.63995630  0.51905999    -0.59800
O1433       O  0.71305618  0.61878618  0.52142217    -0.50700
C1434       C  0.75929265  0.65265522  0.59633954     0.71300
O1435       O  0.77327425  0.67276712  0.57871523    -0.45600
C1436       C  0.70306991  0.67697783  0.55560098     0.76000
O1437       O  0.77717828  0.70306799  0.53971931    -0.57500
O1438       O  0.69964842  0.66030223  0.53466020    -0.47600
O1439       O  0.75299623  0.68324838  0.50075147    -0.53900
C1440       C  0.73428673  0.61954603  0.51052330     0.86200
O1441       O  0.73438369  0.63613794  0.58827765    -0.55800
O1442       O  0.72266458  0.68229223  0.57327997    -0.59100
In1443     In  0.83616938  0.56334402  0.53542216     1.36900
C1444       C  0.79374727  0.55580971  0.50257483     0.78600
O1445       O  0.85642299  0.60293995  0.51022069    -0.59800
O1446       O  0.87776412  0.58087299  0.51129628    -0.50700
C1447       C  0.84505454  0.59099797  0.58684302     0.71300
O1448       O  0.82453245  0.58409811  0.57001747    -0.45600
C1449       C  0.82134471  0.51041897  0.54282444     0.76000
O1450       O  0.79354118  0.55669891  0.53099873    -0.57500
O1451       O  0.83830597  0.52550536  0.52260675    -0.47600
O1452       O  0.81466765  0.55673321  0.49105943    -0.53900
C1453       C  0.87683157  0.60142216  0.50124106     0.86200
O1454       O  0.86150133  0.58341950  0.57787241    -0.55800
O1455       O  0.81444837  0.52307184  0.56088851    -0.59100
In1456     In  0.73753990  0.56355961  0.45231356     1.36900
C1457       C  0.77262530  0.55626057  0.48430552     0.78600
O1458       O  0.75627052  0.60136856  0.48088684    -0.59800
O1459       O  0.71223932  0.57897407  0.47743678    -0.50700
C1460       C  0.75515076  0.59276930  0.40120700     0.71300
O1461       O  0.77096588  0.59108963  0.41994731    -0.45600
C1462       C  0.70315598  0.50919238  0.44250226     0.76000
O1463       O  0.77591483  0.56149875  0.45639344    -0.57500
O1464       O  0.69748672  0.52233215  0.46149790    -0.47600
O1465       O  0.75078239  0.55353426  0.49562374    -0.53900
C1466       C  0.73383286  0.59921418  0.48914323     0.86200
O1467       O  0.72963472  0.57950988  0.40836682    -0.55800
O1468       O  0.72424594  0.52431771  0.42648043    -0.59100
In1469     In  0.74135576  0.56997264  0.04206470     1.36900
C1470       C  0.77539571  0.56238259  0.00756622     0.78600
O1471       O  0.72415589  0.52901965  0.06558326    -0.59800
O1472       O  0.70060196  0.53141902  0.02964214    -0.50700
C1473       C  0.76035947  0.59674467  0.09430805     0.71300
O1474       O  0.77540111  0.59461544  0.07475198    -0.45600
C1475       C  0.73771495  0.60726855  0.00878004     0.76000
O1476       O  0.77820503  0.56507382  0.03583575    -0.57500
O1477       O  0.71619538  0.58669240  0.02017794    -0.47600
O1478       O  0.75452167  0.56220897  0.99718240    -0.53900
C1479       C  0.70388995  0.51617816  0.04789260     0.86200
O1480       O  0.73486732  0.58504420  0.08752567    -0.55800
O1481       O  0.76025139  0.60919738  0.01601633    -0.59100
In1482     In  0.83846696  0.76716965  0.04389999     1.36900
C1483       C  0.79662824  0.73278005  0.00866472     0.78600
O1484       O  0.81470389  0.78186620  0.07043731    -0.59800
O1485       O  0.84031723  0.80779159  0.03486994    -0.50700
C1486       C  0.84632336  0.74706929  0.09526564     0.71300
O1487       O  0.82586293  0.73344108  0.07806589    -0.45600
C1488       C  0.87917124  0.77205304  0.00870833     0.76000
O1489       O  0.79746150  0.72844742  0.03643793    -0.57500
O1490       O  0.88075904  0.79331262  0.02058724    -0.47600
O1491       O  0.81633318  0.75564478  0.99904666    -0.53900
C1492       C  0.82180767  0.80283712  0.05421778     0.86200
O1493       O  0.86327744  0.77171875  0.08664748    -0.55800
O1494       O  0.85807910  0.74929670  0.01625415    -0.59100
C1495       C  0.84286770  0.66704398  0.20219522     0.87500
C1496       C  0.81399163  0.64511333  0.18973912    -0.52700
C1497       C  0.81222178  0.64600703  0.15894963     0.10400
C1498       C  0.83911569  0.66824707  0.14351754     0.21400
C1499       C  0.86349435  0.66170094  0.18488728    -0.53400
C1500       C  0.86139839  0.66233581  0.15430036     0.10500
C1501       C  0.84838919  0.69520349  0.18977278    -0.53000
C1502       C  0.84631985  0.69560375  0.15891135     0.11100
H1503       H  0.79699175  0.63014947  0.20375571     0.15600
H1504       H  0.83756184  0.66867974  0.11846253     0.01400
H1505       H  0.87853829  0.65801925  0.19577421     0.15900
H1506       H  0.85325276  0.71291385  0.20401532     0.15700
C1507       C  0.83191764  0.66782212  0.29084285     0.87500
C1508       C  0.85366966  0.66150555  0.30409291    -0.52700
C1509       C  0.85344504  0.66042768  0.33497110     0.10400
C1510       C  0.83204639  0.66572613  0.34984803     0.21400
C1511       C  0.80393598  0.64530202  0.30479279    -0.53400
C1512       C  0.80419625  0.64438099  0.33566208     0.10500
C1513       C  0.83843537  0.69507341  0.30649007    -0.53000
C1514       C  0.83856556  0.69383357  0.33731377     0.11100
H1515       H  0.86826738  0.65852452  0.29101149     0.15600
H1516       H  0.83207423  0.66486708  0.37502680     0.01400
H1517       H  0.78581162  0.63130190  0.29147607     0.15900
H1518       H  0.84244093  0.71365639  0.29420363     0.15700
In1519     In  0.83877208  0.76182631  0.45946855     1.36900
C1520       C  0.79590335  0.72577084  0.49283444     0.78600
O1521       O  0.85873089  0.74129062  0.48228317    -0.59800
O1522       O  0.88164253  0.78544193  0.48129831    -0.50700
C1523       C  0.84376670  0.74322140  0.40602931     0.71300
O1524       O  0.82248528  0.73050240  0.42251275    -0.45600
C1525       C  0.82623896  0.80153218  0.45524062     0.76000
O1526       O  0.79550369  0.72473291  0.46439779    -0.57500
O1527       O  0.83960653  0.80003463  0.47715377    -0.47600
O1528       O  0.81736286  0.74606068  0.50402294    -0.53900
C1529       C  0.88014516  0.76344461  0.49062791     0.86200
O1530       O  0.86296388  0.76620262  0.41644881    -0.55800
O1531       O  0.82252254  0.78521967  0.43387045    -0.59100
In1532     In  0.93617157  0.76834009  0.95329680     1.36900
C1533       C  0.94450802  0.73388299  0.98592207     0.78600
O1534       O  0.97510560  0.78594655  0.92567304    -0.59800
O1535       O  0.97631358  0.80808316  0.96498700    -0.50700
C1536       C  0.90802809  0.74837189  0.90211188     0.71300
O1537       O  0.91240797  0.73411649  0.92059184    -0.45600
C1538       C  0.89964012  0.77229377  0.98786967     0.76000
O1539       O  0.94036789  0.73111964  0.95785377    -0.57500
O1540       O  0.92006602  0.79379048  0.97622504    -0.47600
O1541       O  0.94558402  0.75493176  0.99724455    -0.53900
C1542       C  0.98973612  0.80520761  0.94388829     0.86200
O1543       O  0.91791012  0.77350475  0.90961073    -0.55800
O1544       O  0.89760304  0.74976630  0.98037322    -0.59100
In1545     In  0.93943554  0.67093812  0.03721243     1.36900
C1546       C  0.94563361  0.71298800  0.00416730     0.78600
O1547       O  0.97846720  0.68921806  0.06483075    -0.59800
O1548       O  0.97835592  0.67196840  0.02223379    -0.50700
C1549       C  0.91100744  0.66266215  0.08792341     0.71300
O1550       O  0.92033224  0.68424112  0.07208095    -0.45600
C1551       C  0.90146570  0.62889010  0.00489308     0.76000
O1552       O  0.94619801  0.71372916  0.03262053    -0.57500
O1553       O  0.92177135  0.62810263  0.01600549    -0.47600
O1554       O  0.94395995  0.69174248  0.99264677    -0.53900
C1555       C  0.99227429  0.68576276  0.04478480     0.86200
O1556       O  0.91682004  0.64502527  0.07852962    -0.55800
O1557       O  0.90047615  0.65007443  0.01155756    -0.59100
In1558     In  0.83776102  0.57024488  0.95276242     1.36900
C1559       C  0.79608013  0.56210678  0.98796797     0.78600
O1560       O  0.81358582  0.53077970  0.92708939    -0.59800
O1561       O  0.83962622  0.53161109  0.96218134    -0.50700
C1562       C  0.84569722  0.59857121  0.90173391     0.71300
O1563       O  0.82737990  0.59415123  0.92099360    -0.45600
C1564       C  0.87990204  0.60753598  0.98566384     0.76000
O1565       O  0.79583551  0.56475456  0.95972262    -0.57500
O1566       O  0.88083701  0.58771357  0.97338622    -0.47600
O1567       O  0.81667378  0.56154204  0.99808803    -0.53900
C1568       C  0.82116257  0.51735167  0.94289735     0.86200
O1569       O  0.86061059  0.58852774  0.90826829    -0.55800
O1570       O  0.85847519  0.60835904  0.97998573    -0.59100
C1571       C  0.83966256  0.65702202  0.70265601     0.87500
C1572       C  0.84493915  0.63629983  0.68542603    -0.52700
C1573       C  0.84438613  0.63848410  0.65476391     0.10400
C1574       C  0.83842662  0.66072518  0.64397070     0.21400
C1575       C  0.86163422  0.68583443  0.68996853    -0.53400
C1576       C  0.86072263  0.68761348  0.65918693     0.10500
C1577       C  0.81148822  0.65151636  0.69040511    -0.53000
C1578       C  0.81106758  0.65347117  0.65954083     0.11100
H1579       H  0.84865848  0.62143849  0.69630170     0.15600
H1580       H  0.83794821  0.66226596  0.61887243     0.01400
H1581       H  0.87668497  0.70282642  0.70386476     0.15900
H1582       H  0.79391017  0.64665115  0.70459641     0.15700
C1583       C  0.83834764  0.66895513  0.79097002     0.87500
C1584       C  0.81053936  0.66239708  0.80537604    -0.52700
C1585       C  0.81074550  0.66237328  0.83624083     0.10400
C1586       C  0.83840044  0.66891838  0.85003360     0.21400
C1587       C  0.86031001  0.69700456  0.80516055    -0.53400
C1588       C  0.86007242  0.69679631  0.83607626     0.10500
C1589       C  0.84436995  0.64735313  0.80522512    -0.53000
C1590       C  0.84434100  0.64760918  0.83615014     0.11100
H1591       H  0.79253539  0.65867322  0.79229475     0.15600
H1592       H  0.83837999  0.66894855  0.87522219     0.01400
H1593       H  0.87445159  0.71517618  0.79204165     0.15900
H1594       H  0.84807587  0.63303056  0.79275230     0.15700
In1595     In  0.93831309  0.75833194  0.54276086     1.36900
C1596       C  0.94353100  0.72457304  0.50551657     0.78600
O1597       O  0.89784232  0.73992704  0.51860300    -0.59800
O1598       O  0.92288393  0.78403919  0.51963041    -0.50700
C1599       C  0.91158403  0.73987441  0.59521023     0.71300
O1600       O  0.91757655  0.72587113  0.57813280    -0.45600
C1601       C  0.99270107  0.79322771  0.55147844     0.76000
O1602       O  0.93844647  0.71935792  0.53327033    -0.57500
O1603       O  0.97872104  0.79950080  0.53460407    -0.47600
O1604       O  0.94692287  0.74744764  0.49698018    -0.53900
C1605       C  0.90096023  0.76273084  0.51009395     0.86200
O1606       O  0.91987444  0.76430010  0.58610508    -0.55800
O1607       O  0.97843078  0.77110992  0.56617879    -0.59100
In1608     In  0.93425944  0.66430417  0.44676609     1.36900
C1609       C  0.94321794  0.70459734  0.48444983     0.78600
O1610       O  0.89562330  0.64328474  0.47377223    -0.59800
O1611       O  0.91728845  0.62178427  0.46849493    -0.50700
C1612       C  0.90463370  0.65786281  0.39718032     0.71300
O1613       O  0.91198274  0.67734473  0.41573483    -0.45600
C1614       C  0.98712620  0.67991875  0.43608282     0.76000
O1615       O  0.94101197  0.70640034  0.45635297    -0.57500
O1616       O  0.97198682  0.66022901  0.45382703    -0.47600
O1617       O  0.94296673  0.68319412  0.49310110    -0.53900
C1618       C  0.89723764  0.62248431  0.48060139     0.86200
O1619       O  0.91279139  0.64127746  0.40336523    -0.55800
O1620       O  0.97442515  0.68903056  0.42136067    -0.59100
In1621     In  0.76827092  0.92939748  0.95832731     1.36900
C1622       C  0.73513479  0.93834510  0.99271099     0.78600
O1623       O  0.74946707  0.89128204  0.98657975    -0.59800
O1624       O  0.79347599  0.91351938  0.98205953    -0.50700
C1625       C  0.74933743  0.90058171  0.90729900     0.71300
O1626       O  0.73442343  0.90430218  0.92559863    -0.45600
C1627       C  0.80338267  0.98263622  0.94600847     0.76000
O1628       O  0.73029497  0.93204867  0.96514522    -0.57500
O1629       O  0.80930947  0.96996338  0.96527570    -0.47600
O1630       O  0.75769577  0.94164131  0.00232289    -0.53900
C1631       C  0.77198809  0.89322011  0.99393034     0.86200
O1632       O  0.77458193  0.91155564  0.91486767    -0.55800
O1633       O  0.78179372  0.96742782  0.93095098    -0.59100
In1634     In  0.67297339  0.93030872  0.04820724     1.36900
C1635       C  0.71471797  0.93882057  0.01260538     0.78600
O1636       O  0.65340745  0.89157660  0.02119022    -0.59800
O1637       O  0.63103525  0.91246711  0.02490582    -0.50700
C1638       C  0.66492272  0.90287482  0.10034770     0.71300
O1639       O  0.68477896  0.90918123  0.08254440    -0.45600
C1640       C  0.68790391  0.98329343  0.05500586     0.76000
O1641       O  0.71567393  0.93729449  0.04094246    -0.57500
O1642       O  0.66811172  0.96709798  0.03803007    -0.47600
O1643       O  0.69344186  0.93808742  0.00264523    -0.53900
C1644       C  0.63271607  0.89291337  0.01303084     0.86200
O1645       O  0.64862037  0.91076596  0.09193907    -0.55800
O1646       O  0.69754797  0.97170220  0.07083043    -0.59100
In1647     In  0.67059408  0.73263111  0.95863602     1.36900
C1648       C  0.71254354  0.76769209  0.99304704     0.78600
O1649       O  0.65139538  0.75164155  0.98554326    -0.59800
O1650       O  0.62788598  0.70764440  0.98154869    -0.50700
C1651       C  0.66192047  0.75125704  0.90720589     0.71300
O1652       O  0.68229219  0.76562010  0.92424492    -0.45600
C1653       C  0.68827962  0.69757159  0.94823061     0.76000
O1654       O  0.71167715  0.77150656  0.96512588    -0.57500
O1655       O  0.66907628  0.69186683  0.96700475    -0.47600
O1656       O  0.69278243  0.74505354  0.00318031    -0.53900
C1657       C  0.62961813  0.72927232  0.99260304     0.86200
O1658       O  0.64547983  0.72657573  0.91600522    -0.55800
O1659       O  0.69568865  0.71903268  0.93277832    -0.59100
In1660     In  0.76830088  0.83130265  0.04736061     1.36900
C1661       C  0.73356917  0.78911731  0.01245314     0.78600
O1662       O  0.74935540  0.85229865  0.02387812    -0.59800
O1663       O  0.79354718  0.87308275  0.02341143    -0.50700
C1664       C  0.74946899  0.83864182  0.09961525     0.71300
O1665       O  0.73578758  0.81782454  0.08289909    -0.45600
C1666       C  0.80618424  0.81702798  0.05485320     0.76000
O1667       O  0.73182306  0.78794823  0.04083452    -0.57500
O1668       O  0.80945712  0.83509101  0.03575658    -0.47600
O1669       O  0.75373031  0.81118545  0.00199161    -0.53900
C1670       C  0.77196138  0.87262293  0.01441230     0.86200
O1671       O  0.77367372  0.85612154  0.09019093    -0.55800
O1672       O  0.78560783  0.80900187  0.07207855    -0.59100
In1673     In  0.67514544  0.73122263  0.54871329     1.36900
C1674       C  0.71824804  0.76671951  0.51514200     0.78600
O1675       O  0.69648668  0.71291166  0.57420485    -0.59800
O1676       O  0.67143966  0.69013189  0.53702725    -0.50700
C1677       C  0.66664340  0.75197651  0.59933927     0.71300
O1678       O  0.68758937  0.76512223  0.58255797    -0.45600
C1679       C  0.63472342  0.72703550  0.51382311     0.76000
O1680       O  0.71895544  0.76702332  0.54357259    -0.57500
O1681       O  0.63379935  0.70551513  0.52391699    -0.47600
O1682       O  0.69636119  0.74710230  0.50380743    -0.53900
C1683       C  0.68892792  0.69276395  0.55649487     0.86200
O1684       O  0.64965094  0.72729946  0.59094765    -0.55800
O1685       O  0.65509539  0.74968170  0.52285849    -0.59100
In1686     In  0.57104807  0.73442158  0.04436593     1.36900
C1687       C  0.56512378  0.76882127  0.00909693     0.78600
O1688       O  0.61096694  0.75250525  0.01924907    -0.59800
O1689       O  0.58699219  0.70847203  0.02233224    -0.50700
C1690       C  0.59822968  0.75431012  0.09601198     0.71300
O1691       O  0.59321367  0.76835527  0.07790427    -0.45600
C1692       C  0.51732467  0.69796816  0.05401113     0.76000
O1693       O  0.56887202  0.77240360  0.03714266    -0.57500
O1694       O  0.53128994  0.69358909  0.03490763    -0.47600
O1695       O  0.56253544  0.74664691  0.99914254    -0.53900
C1696       C  0.60851144  0.72972994  0.01193616     0.86200
O1697       O  0.58908981  0.72941865  0.08810665    -0.55800
O1698       O  0.53137982  0.71906540  0.07023787    -0.59100
In1699     In  0.77564822  0.83354894  0.46587627     1.36900
C1700       C  0.73987626  0.78900987  0.49690984     0.78600
O1701       O  0.79438055  0.81422090  0.43722288    -0.59800
O1702       O  0.81358213  0.83176085  0.47914427    -0.50700
C1703       C  0.75729034  0.84279529  0.41458045     0.71300
O1704       O  0.74232125  0.82311151  0.43234042    -0.45600
C1705       C  0.77860432  0.87399440  0.50044823     0.76000
O1706       O  0.73658342  0.79183869  0.46923925    -0.57500
O1707       O  0.79998222  0.87706769  0.48708244    -0.47600
O1708       O  0.76214375  0.80817707  0.50826406    -0.53900
C1709       C  0.81208531  0.81731598  0.45660823     0.86200
O1710       O  0.78228573  0.85844194  0.42284725    -0.55800
O1711       O  0.75674243  0.85107804  0.49562544    -0.59100
C1712       C  0.68354529  0.82946946  0.29790713     0.87500
C1713       C  0.66168094  0.80104810  0.31166306    -0.52700
C1714       C  0.65981469  0.80147618  0.34255195     0.10400
C1715       C  0.67965737  0.82998970  0.35671101     0.21400
C1716       C  0.67547565  0.85012424  0.30982622    -0.53400
C1717       C  0.67331323  0.85018535  0.34056027     0.10500
C1718       C  0.71083852  0.83755814  0.31471693    -0.53000
C1719       C  0.70865655  0.83796995  0.34544667     0.11100
H1720       H  0.64878886  0.78246965  0.29818229     0.15600
H1721       H  0.67803696  0.83029197  0.38180592     0.01400
H1722       H  0.67224644  0.86392974  0.29513286     0.15900
H1723       H  0.72999210  0.84248002  0.30341928     0.15700
C1724       C  0.66972766  0.82903464  0.20940689     0.87500
C1725       C  0.66516068  0.85188694  0.19626483    -0.52700
C1726       C  0.66578797  0.85306402  0.16532184     0.10400
C1727       C  0.67105216  0.83168465  0.15031829     0.21400
C1728       C  0.64741294  0.80206305  0.19374493    -0.53400
C1729       C  0.64827179  0.80360721  0.16289597     0.10500
C1730       C  0.69765990  0.83518295  0.19519905    -0.53000
C1731       C  0.69809495  0.83660803  0.16436753     0.11100
H1732       H  0.66160163  0.86576839  0.21027270     0.15600
H1733       H  0.67158294  0.83272272  0.12516880     0.01400
H1734       H  0.63207337  0.78364539  0.20598906     0.15900
H1735       H  0.71543596  0.83792427  0.20760075     0.15700
In1736     In  0.67809132  0.92835900  0.45378231     1.36900
C1737       C  0.71776128  0.93634893  0.49200011     0.78600
O1738       O  0.70918573  0.96846369  0.43225513    -0.59800
O1739       O  0.67530480  0.96723990  0.45503951    -0.50700
C1740       C  0.66974625  0.90011991  0.40254021     0.71300
O1741       O  0.68720774  0.90338705  0.42224985    -0.45600
C1742       C  0.63506759  0.89176633  0.48732014     0.76000
O1743       O  0.71836395  0.93142757  0.46433519    -0.57500
O1744       O  0.63751533  0.91454852  0.47942790    -0.47600
O1745       O  0.69743008  0.93841019  0.50011595    -0.53900
C1746       C  0.69845228  0.98182143  0.44185951     0.86200
O1747       O  0.65596738  0.91157375  0.40849951    -0.55800
O1748       O  0.65357070  0.88775395  0.47701448    -0.59100
In1749     In  0.77162163  0.93205679  0.55076108     1.36900
C1750       C  0.73807077  0.93740546  0.51317455     0.78600
O1751       O  0.78451316  0.97303155  0.57163173    -0.59800
O1752       O  0.81379010  0.97112255  0.54295737    -0.50700
C1753       C  0.75206360  0.90579948  0.60328068     0.71300
O1754       O  0.73700967  0.90622675  0.58263193    -0.45600
C1755       C  0.77767432  0.89490921  0.51957416     0.76000
O1756       O  0.73473742  0.93639947  0.54142048    -0.57500
O1757       O  0.79865332  0.91726480  0.52878724    -0.47600
O1758       O  0.75931278  0.93733878  0.50436537    -0.53900
C1759       C  0.80753815  0.98611314  0.55816019     0.86200
O1760       O  0.77784396  0.91906083  0.59753451    -0.55800
O1761       O  0.75463082  0.89146603  0.52768892    -0.59100
In1762     In  0.57823539  0.73130724  0.45841986     1.36900
C1763       C  0.56952143  0.76589489  0.49072339     0.78600
O1764       O  0.53853483  0.71410472  0.43266037    -0.59800
O1765       O  0.53842753  0.69144034  0.47099632    -0.50700
C1766       C  0.60753779  0.75028303  0.40715828     0.71300
O1767       O  0.60349532  0.76505799  0.42528105    -0.45600
C1768       C  0.61438285  0.72708994  0.49314130     0.76000
O1769       O  0.57226297  0.76762023  0.46239588    -0.57500
O1770       O  0.59415408  0.70571721  0.48115347    -0.47600
O1771       O  0.57048346  0.74608003  0.50254020    -0.53900
C1772       C  0.52441527  0.69469224  0.45102157     0.86200
O1773       O  0.59616712  0.72497049  0.41470673    -0.55800
O1774       O  0.61631275  0.74968989  0.48614307    -0.59100
In1775     In  0.57364877  0.82940504  0.54014090     1.36900
C1776       C  0.56771813  0.78665421  0.50864615     0.78600
O1777       O  0.53465289  0.81231833  0.56839076    -0.59800
O1778       O  0.53429156  0.82763913  0.52489180    -0.50700
C1779       C  0.60133115  0.83715512  0.59105137     0.71300
O1780       O  0.59066343  0.81500865  0.57606098    -0.45600
C1781       C  0.61299210  0.87080848  0.50693319     0.76000
O1782       O  0.57062528  0.78817950  0.53693517    -0.57500
O1783       O  0.59440794  0.87334498  0.52012918    -0.47600
O1784       O  0.56545761  0.80572527  0.49677836    -0.53900
C1785       C  0.52057083  0.81491420  0.54810554     0.86200
O1786       O  0.59696237  0.85557103  0.58090897    -0.55800
O1787       O  0.61161557  0.84814610  0.51177802    -0.59100
In1788     In  0.57647614  0.83268660  0.95507217     1.36900
C1789       C  0.56648278  0.79017388  0.98952888     0.78600
O1790       O  0.61577908  0.85360686  0.98115815    -0.59800
O1791       O  0.59217708  0.87332405  0.98065168    -0.50700
C1792       C  0.60408158  0.84076871  0.90333084     0.71300
O1793       O  0.60036745  0.82280235  0.92264251    -0.45600
C1794       C  0.52329867  0.81612388  0.94721746     0.76000
O1795       O  0.56872437  0.78971291  0.96124617    -0.57500
O1796       O  0.53897209  0.83683198  0.96347431    -0.47600
O1797       O  0.56789486  0.81164148  0.99995944    -0.53900
C1798       C  0.61293491  0.87297290  0.99103458     0.86200
O1799       O  0.59401549  0.85560329  0.91033319    -0.55800
O1800       O  0.53554384  0.80649575  0.93243566    -0.59100
C1801       C  0.66602497  0.83025957  0.70633085     0.87500
C1802       C  0.66213620  0.80298463  0.69314589    -0.52700
C1803       C  0.66592147  0.80389929  0.66243846     0.10400
C1804       C  0.67333549  0.83172661  0.64796438     0.21400
C1805       C  0.69528369  0.85330363  0.69587821    -0.53400
C1806       C  0.69896113  0.85382998  0.66527231     0.10500
C1807       C  0.64590335  0.83551320  0.68810278    -0.53000
C1808       C  0.64990022  0.83639171  0.65770209     0.11100
H1809       H  0.65666572  0.78475515  0.70672530     0.15600
H1810       H  0.67637478  0.83243406  0.62302678     0.01400
H1811       H  0.71120815  0.86814812  0.71112653     0.15900
H1812       H  0.62981827  0.83816642  0.69828778     0.15700
C1813       C  0.67364542  0.82857397  0.79506272     0.87500
C1814       C  0.65196714  0.83545465  0.80749323    -0.52700
C1815       C  0.65108487  0.83586421  0.83839362     0.10400
C1816       C  0.67129238  0.82935374  0.85398561     0.21400
C1817       C  0.70125538  0.85030931  0.81012704    -0.53400
C1818       C  0.69985898  0.85052761  0.84094280     0.10500
C1819       C  0.66587253  0.80078580  0.81020562    -0.53000
C1820       C  0.66455061  0.80131692  0.84097588     0.11100
H1821       H  0.63871938  0.83984798  0.79387046     0.15600
H1822       H  0.67036236  0.82964854  0.87912399     0.01400
H1823       H  0.72005767  0.86430551  0.79753332     0.15900
H1824       H  0.66227296  0.78256438  0.79772586     0.15700
C1825       C  0.66093712  0.82996368  0.74009981    -0.15400
C1826       C  0.67692718  0.82751530  0.76091538    -0.30600
H1827       H  0.64386789  0.83235622  0.74722215     0.13600
H1828       H  0.69354048  0.82452463  0.75304505     0.14200
C1829       C  0.61895117  0.84343252  0.87571394    -0.12200
C1830       C  0.63275807  0.84143238  0.85598515    -0.13800
C1831       C  0.61817441  0.84083669  0.61696137    -0.12200
C1832       C  0.63276064  0.84016307  0.63643859    -0.13800
C1833       C  0.73973665  0.89040481  0.63066715    -0.12200
C1834       C  0.72347439  0.87470328  0.64938021    -0.13800
C1835       C  0.64016574  0.77803972  0.36106597    -0.14600
C1836       C  0.62453925  0.76245818  0.38044307    -0.13800
C1837       C  0.66782111  0.86894208  0.35733648    -0.12200
C1838       C  0.66631760  0.88395074  0.37584374    -0.13800
C1839       C  0.66688004  0.82684375  0.24401639    -0.15400
C1840       C  0.68681320  0.82993614  0.26355900    -0.30600
H1841       H  0.64730202  0.82286366  0.25334590     0.13600
H1842       H  0.70654226  0.83405810  0.25514605     0.14200
C1843       C  0.73103578  0.84430395  0.36621192    -0.12200
C1844       C  0.74585900  0.84626454  0.38700638    -0.13800
C1845       C  0.62878870  0.78162325  0.14314218    -0.12200
C1846       C  0.61394973  0.76671270  0.12312683    -0.13800
C1847       C  0.66305479  0.78101769  0.64427299    -0.12200
C1848       C  0.66279026  0.76524397  0.62537131    -0.13800
C1849       C  0.72128139  0.84093953  0.14584793    -0.12200
C1850       C  0.73707945  0.84199191  0.12656127    -0.13800
C1851       C  0.65936294  0.77846126  0.86035984    -0.12200
C1852       C  0.65818971  0.76317557  0.88022422    -0.13800
C1853       C  0.66147736  0.88714603  0.12757266    -0.12200
C1854       C  0.66219064  0.87250465  0.14722030    -0.13800
C1855       C  0.73750406  0.88453512  0.88020019    -0.12200
C1856       C  0.72247548  0.86966502  0.86026522    -0.13800
C1857       C  0.88023586  0.71157232  0.64148278    -0.12200
C1858       C  0.89544908  0.72760301  0.62226939    -0.13800
C1859       C  0.84075977  0.65423649  0.73679064    -0.15400
C1860       C  0.83761364  0.67071617  0.75650050    -0.30600
H1861       H  0.84433292  0.63827224  0.74502296     0.13600
H1862       H  0.83391447  0.68643803  0.74739272     0.14200
C1863       C  0.84888651  0.61431268  0.87473505    -0.12200
C1864       C  0.84813543  0.62880663  0.85502211    -0.13800
C1865       C  0.89261429  0.73594072  0.87481368    -0.12200
C1866       C  0.87852881  0.72025095  0.85487677    -0.13800
C1867       C  0.88765933  0.65513686  0.37148152    -0.12200
C1868       C  0.87252013  0.65626217  0.35289086    -0.13800
C1869       C  0.84366808  0.71633612  0.35727806    -0.12200
C1870       C  0.84564916  0.73125902  0.37800288    -0.13800
C1871       C  0.87938597  0.65904998  0.13365698    -0.12200
C1872       C  0.89421149  0.65875377  0.11409249    -0.13800
C1873       C  0.83006976  0.66950475  0.25646176    -0.15400
C1874       C  0.84586676  0.66581482  0.23624611    -0.30600
H1875       H  0.81466772  0.67387519  0.24791724     0.13600
H1876       H  0.86139746  0.66141411  0.24401793     0.14200
C1877       C  0.84982247  0.73436475  0.12199820    -0.12200
C1878       C  0.84954706  0.71888454  0.14126890    -0.13800
C1879       C  0.77239903  0.61198401  0.12181613    -0.12200
C1880       C  0.78823227  0.62668671  0.14133455    -0.13800
C1881       C  0.76631928  0.60899130  0.37400042    -0.12200
C1882       C  0.78121416  0.62435575  0.35417475    -0.13800
C1883       C  0.84894820  0.60688164  0.61378555    -0.12200
C1884       C  0.84823440  0.62097180  0.63394526    -0.13800
C1885       C  0.77188658  0.64912880  0.62301393    -0.12200
C1886       C  0.78756620  0.64973938  0.64213162    -0.13800
C1887       C  0.77308423  0.65786342  0.87526361    -0.12200
C1888       C  0.78800331  0.65849323  0.85516186    -0.13800
loop_ 
_geom_bond_atom_site_label_1 
_geom_bond_atom_site_label_2 
_geom_bond_distance 
_geom_bond_site_symmetry_2 
_ccdc_geom_bond_type 
In1           O3   2.255       .  S
In1           O4   2.273       .  S
In1          O12   2.276       .  S
In1           O6   2.224       .  S
In1           O8   2.239       .  S
In1           O9   2.286       .  S
In1          O10   2.235       .  S
In1          O13   2.221       .  S
C2            O8   1.258       .  A
C2           O10   1.257       .  A
C2           C67   1.452       .  S
O3           C11   1.257       .  A
O4           C11   1.260       .  A
C5           O12   1.266       .  A
C5            O6   1.257       .  A
C5          C471   1.441       .  S
C7            O9   1.266       .  A
C7           O13   1.257       .  A
C7           C59   1.470   1_556  S
C11         C237   1.472       .  S
In14         O16   2.215       .  S
In14         O17   2.284       .  S
In14         O25   2.284       .  S
In14         O19   2.234       .  S
In14         O21   2.246       .  S
In14         O22   2.266       .  S
In14         O23   2.247       .  S
In14         O26   2.244       .  S
C15          O21   1.259       .  A
C15          O23   1.257       .  A
C15         C104   1.458       .  S
O16          C24   1.258       .  A
O17          C24   1.266       .  A
C18          O25   1.266       .  A
C18          O19   1.257       .  A
C18         C469   1.446       .  S
C20          O22   1.258       .  A
C20          O26   1.256       .  A
C20         C267   1.465       .  S
C24          C50   1.469       .  S
In27         O29   2.224       .  S
In27         O30   2.293       .  S
In27         O38   2.294       .  S
In27         O32   2.230       .  S
In27         O34   2.233       .  S
In27         O35   2.280       .  S
In27         O36   2.246       .  S
In27         O39   2.227       .  S
C28          O34   1.258       .  A
C28          O36   1.259       .  A
C28          C41   1.454       .  S
O29          C37   1.257       .  A
O30          C37   1.265       .  A
C31          O38   1.265       .  A
C31          O32   1.254       .  A
C31         C467   1.444       .  S
C33          O35   1.261       .  A
C33          O39   1.256       .  A
C33         C815   1.465   1_545  S
C37         C202   1.473       .  S
In40         O42   2.214       .  S
In40         O43   2.287       .  S
In40         O51   2.286       .  S
In40         O45   2.225       .  S
In40         O47   2.241       .  S
In40         O48   2.283       .  S
In40         O49   2.238       .  S
In40         O52   2.231       .  S
C41          O47   1.259       .  A
C41          O49   1.258       .  A
O42          C50   1.257       .  A
O43          C50   1.266       .  A
C44          O51   1.266       .  A
C44          O45   1.255       .  A
C44         C465   1.442       .  S
C46          O48   1.262       .  A
C46          O52   1.256       .  A
C46         C802   1.469   1_545  S
In53         O55   2.236       .  S
In53         O56   2.263       .  S
In53         O64   2.282       .  S
In53         O58   2.223       .  S
In53         O60   2.241       .  S
In53         O61   2.280       .  S
In53         O62   2.240   1_554  S
In53         O65   2.221       .  S
C54          O60   1.258       .  A
C54          O62   1.257   1_554  A
C54         C143   1.453   1_554  S
O55          C63   1.256       .  A
O56          C63   1.259       .  A
C57          O64   1.266       .  A
C57          O58   1.256       .  A
C57         C463   1.442       .  S
C59          O61   1.265       .  A
C59          O65   1.258       .  A
C63         C696   1.461   1_545  S
In66         O68   2.235       .  S
In66         O69   2.274       .  S
In66         O77   2.276       .  S
In66         O71   2.219       .  S
In66         O73   2.230       .  S
In66         O74   2.295       .  S
In66         O75   2.238   1_554  S
In66         O78   2.210   1_554  S
C67          O73   1.259   1_556  A
C67          O75   1.259       .  A
O68          C76   1.257       .  A
O69          C76   1.262       .  A
C70          O77   1.266       .  A
C70          O71   1.255       .  A
C70         C461   1.438       .  S
C72          O74   1.267   1_556  A
C72          O78   1.255       .  A
C72         C122   1.469       .  S
C76         C250   1.468       .  S
C79          C80   1.546       .  S
C79          C85   1.545       .  S
C79          C83   1.546       .  S
C79         C458   1.521       .  S
C80          H87   1.089       .  S
C80          C81   1.368       .  D
C81          C82   1.533       .  S
C81         C464   1.449       .  S
C82          C86   1.530       .  S
C82          C84   1.533       .  S
C82          H88   1.112       .  S
C83          H89   1.073       .  S
C83          C84   1.367       .  D
C84         C455   1.446       .  S
C85          H90   1.089       .  S
C85          C86   1.363       .  D
C86         C462   1.445       .  S
C91          C92   1.546       .  S
C91          C97   1.553       .  S
C91          C95   1.545       .  S
C91         C457   1.530       .  S
C92          H99   1.085       .  S
C92          C93   1.366       .  D
C93          C94   1.532       .  S
C93         C452   1.450       .  S
C94          C98   1.532       .  S
C94          C96   1.531       .  S
C94         H100   1.113       .  S
C95         H101   1.087       .  S
C95          C96   1.366       .  D
C96         C466   1.449       .  S
C97         H102   1.093       .  S
C97          C98   1.365       .  D
C98         C453   1.450       .  S
In103       O105   2.201       .  S
In103       O106   2.286       .  S
In103       O114   2.283       .  S
In103       O108   2.229       .  S
In103       O110   2.247       .  S
In103       O111   2.263       .  S
In103       O112   2.240       .  S
In103       O115   2.242       .  S
C104        O110   1.259       .  A
C104        O112   1.257       .  A
O105        C113   1.257       .  A
O106        C113   1.266       .  A
C107        O114   1.265       .  A
C107        O108   1.256       .  A
C107        C454   1.443       .  S
C109        O111   1.258       .  A
C109        O115   1.257       .  A
C109        C293   1.463       .  S
C113        C189   1.465       .  S
In116       O118   2.235       .  S
In116       O119   2.268       .  S
In116       O127   2.288       .  S
In116       O121   2.218       .  S
In116       O123   2.246       .  S
In116       O124   2.289       .  S
In116       O125   2.239       .  S
In116       O128   2.209       .  S
C117        O123   1.258       .  A
C117        O125   1.256       .  A
C117        C130   1.455       .  S
O118        C126   1.257       .  A
O119        C126   1.261       .  A
C120        O127   1.267       .  A
C120        O121   1.256       .  A
C120        C449   1.442       .  S
C122        O124   1.266       .  A
C122        O128   1.258       .  A
C126       C1322   1.467       .  S
In129       O131   2.233       .  S
In129       O132   2.268       .  S
In129       O140   2.275       .  S
In129       O134   2.224       .  S
In129       O136   2.239       .  S
In129       O137   2.271       .  S
In129       O138   2.248   1_554  S
In129       O141   2.209       .  S
C130        O136   1.257   1_556  A
C130        O138   1.258       .  A
O131        C139   1.256       .  A
O132        C139   1.258       .  A
C133        O140   1.265       .  A
C133        O134   1.256       .  A
C133        C456   1.439       .  S
C135        O137   1.264       .  A
C135        O141   1.257       .  A
C135        C148   1.460   1_554  S
C139       C1220   1.461       .  S
In142       O144   2.241       .  S
In142       O145   2.256       .  S
In142       O153   2.274       .  S
In142       O147   2.216       .  S
In142       O149   2.235       .  S
In142       O150   2.275       .  S
In142       O151   2.239       .  S
In142       O154   2.206       .  S
C143        O149   1.258       .  A
C143        O151   1.258       .  A
O144        C152   1.256       .  A
O145        C152   1.257       .  A
C146        O153   1.266       .  A
C146        O147   1.256       .  A
C146        C447   1.438       .  S
C148        O150   1.265       .  A
C148        O154   1.256       .  A
C152        C683   1.459   1_545  S
C155        C156   1.547       .  S
C155        C161   1.547       .  S
C155        C159   1.543       .  S
C155        C443   1.520       .  S
C156        H163   1.086       .  S
C156        C157   1.369       .  D
C157        C158   1.533       .  S
C157        C468   1.451       .  S
C158        C162   1.533       .  S
C158        C160   1.530       .  S
C158        H164   1.112       .  S
C159        H165   1.088       .  S
C159        C160   1.359       .  D
C160        C441   1.443       .  S
C161        H166   1.086       .  S
C161        C162   1.369       .  D
C162        C470   1.451       .  S
C167        C168   1.544       .  S
C167        C173   1.542       .  S
C167        C171   1.556       .  S
C167        C444   1.531       .  S
C168        H175   1.087       .  S
C168        C169   1.366       .  D
C169        C170   1.533       .  S
C169        C472   1.448       .  S
C170        C174   1.533       .  S
C170        C172   1.531       .  S
C170        H176   1.112       .  S
C171        H177   1.082       .  S
C171        C172   1.365       .  D
C172        C450   1.450       .  S
C173        H178   1.087       .  S
C173        C174   1.364       .  D
C174        C448   1.445       .  S
In179       O181   2.201       .  S
In179       O182   2.287       .  S
In179       O190   2.268       .  S
In179       O184   2.218       .  S
In179       O186   2.231       .  S
In179       O187   2.270       .  S
In179       O188   2.252       .  S
In179       O191   2.237       .  S
C180        O186   1.256       .  A
C180        O188   1.258       .  A
C180        C193   1.454       .  S
O181        C189   1.257       .  A
O182        C189   1.267       .  A
C183        O190   1.266       .  A
C183        O184   1.257       .  A
C183        C442   1.436       .  S
C185        O187   1.261       .  A
C185        O191   1.255       .  A
C185       C1313   1.466       .  S
In192       O194   2.221       .  S
In192       O195   2.292       .  S
In192       O203   2.289       .  S
In192       O197   2.224       .  S
In192       O199   2.249       .  S
In192       O200   2.276       .  S
In192       O201   2.233       .  S
In192       O204   2.245       .  S
C193        O199   1.258       .  A
C193        O201   1.256       .  A
O194        C202   1.257       .  A
O195        C202   1.266       .  A
C196        O203   1.266       .  A
C196        O197   1.255       .  A
C196        C451   1.443       .  S
C198        O200   1.260       .  A
C198        O204   1.257       .  A
C198       C1300   1.470       .  S
In205       O207   2.213       .  S
In205       O208   2.291       .  S
In205       O216   2.285       .  S
In205       O210   2.224       .  S
In205       O212   2.227       .  S
In205       O213   2.276       .  S
In205       O214   2.245       .  S
In205       O217   2.224       .  S
C206        O212   1.258       .  A
C206        O214   1.259       .  A
C206        C219   1.452   1_556  S
O207        C215   1.257       .  A
O208        C215   1.266       .  A
C209        O216   1.265       .  A
C209        O210   1.254       .  A
C209        C439   1.442       .  S
C211        O213   1.262       .  A
C211        O217   1.256       .  A
C211        C624   1.464       .  S
C215        C254   1.469   1_556  S
In218       O220   2.211       .  S
In218       O221   2.284       .  S
In218       O229   2.286       .  S
In218       O223   2.222       .  S
In218       O225   2.242       .  S
In218       O226   2.274       .  S
In218       O227   2.231   1_554  S
In218       O230   2.238       .  S
C219        O225   1.259       .  A
C219        O227   1.257   1_554  A
O220        C228   1.258       .  A
O221        C228   1.268       .  A
C222        O229   1.266       .  A
C222        O223   1.255       .  A
C222        C437   1.441       .  S
C224        O226   1.260       .  A
C224        O230   1.256       .  A
C224        C535   1.467       .  S
C228        C382   1.469   1_554  S
In231       O233   2.212       .  S
In231       O234   2.291       .  S
In231       O242   2.285       .  S
In231       O236   2.222       .  S
In231       O238   2.252       .  S
In231       O239   2.268       .  S
In231       O240   2.235       .  S
In231       O243   2.258       .  S
C232        O238   1.258       .  A
C232        O240   1.257       .  A
C232        C245   1.457       .  S
O233        C241   1.256       .  A
O234        C241   1.266       .  A
C235        O242   1.267       .  A
C235        O236   1.256       .  A
C235        C436   1.442       .  S
C237        O239   1.258       .  A
C237        O243   1.258       .  A
C241        C280   1.468       .  S
In244       O246   2.215       .  S
In244       O247   2.286       .  S
In244       O255   2.279       .  S
In244       O249   2.229       .  S
In244       O251   2.236       .  S
In244       O252   2.276       .  S
In244       O253   2.255   1_554  S
In244       O256   2.238       .  S
C245        O251   1.257   1_556  A
C245        O253   1.258       .  A
O246        C254   1.258       .  A
O247        C254   1.266       .  A
C248        O255   1.265       .  A
C248        O249   1.256       .  A
C248        C434   1.442       .  S
C250        O252   1.260       .  A
C250        O256   1.256       .  A
In257       O259   2.242       .  S
In257       O260   2.263       .  S
In257       O268   2.270       .  S
In257       O262   2.221       .  S
In257       O264   2.240       .  S
In257       O265   2.287       .  S
In257       O266   2.231       .  S
In257       O269   2.206       .  S
C258        O264   1.257       .  A
C258        O266   1.256       .  A
C258        C284   1.450       .  S
O259        C267   1.257       .  A
O260        C267   1.259       .  A
C261        O268   1.266       .  A
C261        O262   1.257       .  A
C261        C432   1.437       .  S
C263        O265   1.267       .  A
C263        O269   1.257       .  A
C263        C352   1.467       .  S
In270       O272   2.211       .  S
In270       O273   2.287       .  S
In270       O281   2.286       .  S
In270       O275   2.223       .  S
In270       O277   2.238       .  S
In270       O278   2.267       .  S
In270       O279   2.243   1_554  S
In270       O282   2.232       .  S
C271        O277   1.258       .  A
C271        O279   1.258   1_554  A
C271        C373   1.455   1_554  S
O272        C280   1.257   1_554  A
O273        C280   1.265   1_554  A
C274        O281   1.265       .  A
C274        O275   1.255       .  A
C274        C430   1.441       .  S
C276        O278   1.260       .  A
C276        O282   1.256       .  A
C276       C1083   1.462   1_455  S
In283       O285   2.234       .  S
In283       O286   2.262       .  S
In283       O294   2.274       .  S
In283       O288   2.213       .  S
In283       O290   2.227       .  S
In283       O291   2.281       .  S
In283       O292   2.241       .  S
In283       O295   2.206       .  S
C284        O290   1.257       .  A
C284        O292   1.258       .  A
O285        C293   1.256       .  A
O286        C293   1.260       .  A
C287        O294   1.266       .  A
C287        O288   1.256       .  A
C287        C428   1.436       .  S
C289        O291   1.266       .  A
C289        O295   1.257       .  A
C289        C339   1.464       .  S
C296        C297   1.548       .  S
C296        C302   1.543       .  S
C296        C300   1.547       .  S
C296        C424   1.519       .  S
C297        H304   1.079       .  S
C297        C298   1.369       .  D
C298        C299   1.531       .  S
C298        C419   1.448       .  S
C299        C303   1.530       .  S
C299        C301   1.530       .  S
C299        H305   1.113       .  S
C300        H306   1.082       .  S
C300        C301   1.367       .  D
C301        C421   1.446       .  S
C302        H307   1.093       .  S
C302        C303   1.361       .  D
C303        C427   1.444       .  S
C308        C309   1.544       .  S
C308        C314   1.555       .  S
C308        C312   1.543       .  S
C308        C423   1.526       .  S
C309        H316   1.092       .  S
C309        C310   1.364       .  D
C310        C311   1.533       .  S
C310        C438   1.449       .  S
C311        C315   1.532       .  S
C311        C313   1.532       .  S
C311        H317   1.113       .  S
C312        H318   1.088       .  S
C312        C313   1.364       .  D
C313        C429   1.448       .  S
C314        H319   1.079       .  S
C314        C315   1.367       .  D
C315        C433   1.449       .  S
In320       O322   2.224       .  S
In320       O323   2.261       .  S
In320       O331   2.278       .  S
In320       O325   2.227       .  S
In320       O327   2.233       .  S
In320       O328   2.269       .  S
In320       O329   2.248       .  S
In320       O332   2.196       .  S
C321        O327   1.258       .  A
C321        O329   1.257       .  A
C321        C334   1.454       .  S
O322        C330   1.257       .  A
O323        C330   1.259       .  A
C324        O331   1.264       .  A
C324        O325   1.255       .  A
C324        C422   1.440       .  S
C326        O328   1.264       .  A
C326        O332   1.257       .  A
C326        C365   1.457       .  S
C330        C518   1.460       .  S
In333       O335   2.227       .  S
In333       O336   2.269       .  S
In333       O344   2.274       .  S
In333       O338   2.217       .  S
In333       O340   2.244       .  S
In333       O341   2.281       .  S
In333       O342   2.233       .  S
In333       O345   2.205       .  S
C334        O340   1.259       .  A
C334        O342   1.257       .  A
O335        C343   1.257       .  A
O336        C343   1.261       .  A
C337        O344   1.266       .  A
C337        O338   1.256       .  A
C337        C417   1.438       .  S
C339        O341   1.266       .  A
C339        O345   1.257       .  A
C343        C505   1.465       .  S
In346       O348   2.238       .  S
In346       O349   2.265       .  S
In346       O357   2.279       .  S
In346       O351   2.231       .  S
In346       O353   2.247       .  S
In346       O354   2.289       .  S
In346       O355   2.234       .  S
In346       O358   2.208       .  S
C347        O353   1.259       .  A
C347        O355   1.257       .  A
C347        C360   1.455       .  S
O348        C356   1.257       .  A
O349        C356   1.259       .  A
C350        O357   1.264       .  A
C350        O351   1.256       .  A
C350        C420   1.442       .  S
C352        O354   1.266       .  A
C352        O358   1.257       .  A
C356       C1142   1.464   1_455  S
In359       O361   2.218       .  S
In359       O362   2.262       .  S
In359       O370   2.278       .  S
In359       O364   2.224       .  S
In359       O366   2.231       .  S
In359       O367   2.273       .  S
In359       O368   2.252       .  S
In359       O371   2.196       .  S
C360        O366   1.257       .  A
C360        O368   1.258       .  A
O361        C369   1.254       .  A
O362        C369   1.259       .  A
C363        O370   1.265       .  A
C363        O364   1.256       .  A
C363        C415   1.440       .  S
C365        O367   1.265       .  A
C365        O371   1.257       .  A
C369       C1129   1.455   1_455  S
In372       O374   2.218       .  S
In372       O375   2.285       .  S
In372       O383   2.278       .  S
In372       O377   2.228       .  S
In372       O379   2.245       .  S
In372       O380   2.267       .  S
In372       O381   2.246       .  S
In372       O384   2.250       .  S
C373        O379   1.257       .  A
C373        O381   1.256       .  A
O374        C382   1.258       .  A
O375        C382   1.265       .  A
C376        O383   1.266       .  A
C376        O377   1.257       .  A
C376        C413   1.442       .  S
C378        O380   1.258       .  A
C378        O384   1.256       .  A
C378       C1070   1.466   1_455  S
C385        C386   1.544       .  S
C385        C391   1.547       .  S
C385        C389   1.546       .  S
C385        C409   1.521       .  S
C386        H393   1.091       .  S
C386        C387   1.360       .  D
C387        C388   1.529       .  S
C387        C431   1.444       .  S
C388        C392   1.531       .  S
C388        C390   1.530       .  S
C388        H394   1.112       .  S
C389        H395   1.079       .  S
C389        C390   1.367       .  D
C390        C418   1.444       .  S
C391        H396   1.087       .  S
C391        C392   1.369       .  D
C392        C416   1.447       .  S
C397        C398   1.545       .  S
C397        C403   1.556       .  S
C397        C401   1.544       .  S
C397        C410   1.532       .  S
C398        H405   1.093       .  S
C398        C399   1.366       .  D
C399        C400   1.531       .  S
C399        C414   1.448       .  S
C400        C404   1.530       .  S
C400        C402   1.532       .  S
C400        H406   1.112       .  S
C401        H407   1.091       .  S
C401        C402   1.365       .  D
C402        C440   1.450       .  S
C403        H408   1.081       .  S
C403        C404   1.365       .  D
C404        C435   1.450       .  S
C409        H411   1.083       .  S
C409        C410   1.349       .  D
C410        H412   1.087       .  S
C413        C414   1.210       .  T
C415        C416   1.209       .  T
C417        C418   1.208       .  T
C419        C420   1.210       .  T
C421        C422   1.208       .  T
C423        H425   1.106       .  S
C423        C424   1.345       .  D
C424        H426   1.099       .  S
C427        C428   1.207       .  T
C429        C430   1.209       .  T
C431        C432   1.207       .  T
C433        C434   1.210       .  T
C435        C436   1.210       .  T
C437        C438   1.210       .  T
C439        C440   1.210       .  T
C441        C442   1.206       .  T
C443        H445   1.081       .  S
C443        C444   1.348       .  D
C444        H446   1.088       .  S
C447        C448   1.208       .  T
C449        C450   1.210       .  T
C451        C452   1.211       .  T
C453        C454   1.210       .  T
C455        C456   1.208       .  T
C457        H459   1.096       .  S
C457        C458   1.348       .  D
C458        H460   1.096       .  S
C461        C462   1.208       .  T
C463        C464   1.210       .  T
C465        C466   1.210       .  T
C467        C468   1.211       .  T
C469        C470   1.212       .  T
C471        C472   1.210       .  T
In473       O475   2.239       .  S
In473       O476   2.273       .  S
In473       O484   2.279       .  S
In473       O478   2.220       .  S
In473       O480   2.238       .  S
In473       O481   2.282       .  S
In473       O482   2.231       .  S
In473       O485   2.217       .  S
C474        O480   1.259       .  A
C474        O482   1.257       .  A
C474        C539   1.453   1_556  S
O475        C483   1.256       .  A
O476        C483   1.261       .  A
C477        O484   1.266       .  A
C477        O478   1.257       .  A
C477        C943   1.441       .  S
C479        O481   1.267       .  A
C479        O485   1.257       .  A
C479        C531   1.470   1_556  S
C483        C709   1.467       .  S
In486       O488   2.213       .  S
In486       O489   2.290       .  S
In486       O497   2.273       .  S
In486       O491   2.226       .  S
In486       O493   2.251       .  S
In486       O494   2.261       .  S
In486       O495   2.232       .  S
In486       O498   2.259       .  S
C487        O493   1.259       .  A
C487        O495   1.255       .  A
C487        C576   1.455       .  S
O488        C496   1.257       .  A
O489        C496   1.266       .  A
C490        O497   1.267       .  A
C490        O491   1.258       .  A
C490        C941   1.441       .  S
C492        O494   1.257       .  A
C492        O498   1.257       .  A
C492        C739   1.468       .  S
C496        C522   1.469       .  S
In499       O501   2.213       .  S
In499       O502   2.279       .  S
In499       O510   2.280       .  S
In499       O504   2.220       .  S
In499       O506   2.243       .  S
In499       O507   2.276       .  S
In499       O508   2.242       .  S
In499       O511   2.237       .  S
C500        O506   1.257       .  A
C500        O508   1.257       .  A
C500        C513   1.455       .  S
O501        C509   1.258       .  A
O502        C509   1.266       .  A
C503        O510   1.266       .  A
C503        O504   1.255       .  A
C503        C939   1.440       .  S
C505        O507   1.259       .  A
C505        O511   1.255       .  A
C509        C674   1.466       .  S
In512       O514   2.212       .  S
In512       O515   2.290       .  S
In512       O523   2.283       .  S
In512       O517   2.212       .  S
In512       O519   2.234       .  S
In512       O520   2.263       .  S
In512       O521   2.246       .  S
In512       O524   2.216       .  S
C513        O519   1.258       .  A
C513        O521   1.259       .  A
O514        C522   1.257       .  A
O515        C522   1.265       .  A
C516        O523   1.266       .  A
C516        O517   1.255       .  A
C516        C937   1.437       .  S
C518        O520   1.263       .  A
C518        O524   1.256       .  A
In525       O527   2.234       .  S
In525       O528   2.270       .  S
In525       O536   2.276       .  S
In525       O530   2.230       .  S
In525       O532   2.244       .  S
In525       O533   2.279       .  S
In525       O534   2.238   1_554  S
In525       O537   2.224       .  S
C526        O532   1.259       .  A
C526        O534   1.257   1_554  A
C526        C615   1.454   1_554  S
O527        C535   1.256       .  A
O528        C535   1.260       .  A
C529        O536   1.264       .  A
C529        O530   1.257       .  A
C529        C935   1.441       .  S
C531        O533   1.265       .  A
C531        O537   1.259       .  A
In538       O540   2.241       .  S
In538       O541   2.267       .  S
In538       O549   2.280       .  S
In538       O543   2.225       .  S
In538       O545   2.239       .  S
In538       O546   2.288       .  S
In538       O547   2.244   1_554  S
In538       O550   2.210       .  S
C539        O545   1.258       .  A
C539        O547   1.257   1_554  A
O540        C548   1.257       .  A
O541        C548   1.259       .  A
C542        O549   1.266       .  A
C542        O543   1.256       .  A
C542        C933   1.442       .  S
C544        O546   1.266       .  A
C544        O550   1.257       .  A
C544        C594   1.469   1_554  S
C548        C722   1.464       .  S
C551        C552   1.547       .  S
C551        C557   1.543       .  S
C551        C555   1.555       .  S
C551        C930   1.530       .  S
C552        H559   1.086       .  S
C552        C553   1.367       .  D
C553        C554   1.531       .  S
C553        C936   1.447       .  S
C554        C558   1.533       .  S
C554        C556   1.530       .  S
C554        H560   1.112       .  S
C555        H561   1.082       .  S
C555        C556   1.364       .  D
C556        C927   1.448       .  S
C557        H562   1.086       .  S
C557        C558   1.364       .  D
C558        C934   1.449       .  S
C563        C564   1.545       .  S
C563        C569   1.547       .  S
C563        C567   1.543       .  S
C563        C929   1.520       .  S
C564        H571   1.087       .  S
C564        C565   1.362       .  D
C565        C566   1.532       .  S
C565        C924   1.446       .  S
C566        C570   1.533       .  S
C566        C568   1.534       .  S
C566        H572   1.112       .  S
C567        H573   1.086       .  S
C567        C568   1.365       .  D
C568        C938   1.445       .  S
C569        H574   1.086       .  S
C569        C570   1.369       .  D
C570        C925   1.450       .  S
In575       O577   2.214       .  S
In575       O578   2.277       .  S
In575       O586   2.285       .  S
In575       O580   2.227       .  S
In575       O582   2.234       .  S
In575       O583   2.277       .  S
In575       O584   2.250       .  S
In575       O587   2.242       .  S
C576        O582   1.258       .  A
C576        O584   1.258       .  A
O577        C585   1.258       .  A
O578        C585   1.265       .  A
C579        O586   1.266       .  A
C579        O580   1.256       .  A
C579        C926   1.443       .  S
C581        O583   1.260       .  A
C581        O587   1.257       .  A
C581        C765   1.469       .  S
C585        C661   1.466       .  S
In588       O590   2.230       .  S
In588       O591   2.274       .  S
In588       O599   2.275       .  S
In588       O593   2.223       .  S
In588       O595   2.232       .  S
In588       O596   2.292       .  S
In588       O597   2.244   1_556  S
In588       O600   2.208       .  S
C589        O595   1.258       .  A
C589        O597   1.259   1_556  A
C589        C602   1.454   1_556  S
O590        C598   1.255       .  A
O591        C598   1.261       .  A
C592        O599   1.264       .  A
C592        O593   1.256       .  A
C592        C921   1.437       .  S
C594        O596   1.267       .  A
C594        O600   1.257       .  A
C598       C1794   1.464       .  S
In601       O603   2.237       .  S
In601       O604   2.260       .  S
In601       O612   2.285       .  S
In601       O606   2.219       .  S
In601       O608   2.240       .  S
In601       O609   2.290       .  S
In601       O610   2.235       .  S
In601       O613   2.205       .  S
C602        O608   1.259       .  A
C602        O610   1.258       .  A
O603        C611   1.257       .  A
O604        C611   1.260       .  A
C605        O612   1.266       .  A
C605        O606   1.255       .  A
C605        C928   1.440       .  S
C607        O609   1.266       .  A
C607        O613   1.256       .  A
C607        C620   1.466   1_554  S
C611       C1692   1.463       .  S
In614       O616   2.223       .  S
In614       O617   2.274       .  S
In614       O625   2.289       .  S
In614       O619   2.219       .  S
In614       O621   2.236       .  S
In614       O622   2.286       .  S
In614       O623   2.247       .  S
In614       O626   2.207       .  S
C615        O621   1.258       .  A
C615        O623   1.258       .  A
O616        C624   1.256       .  A
O617        C624   1.262       .  A
C618        O625   1.266       .  A
C618        O619   1.254       .  A
C618        C919   1.441       .  S
C620        O622   1.265       .  A
C620        O626   1.258       .  A
C627        C628   1.543       .  S
C627        C633   1.542       .  S
C627        C631   1.555       .  S
C627        C915   1.527       .  S
C628        H635   1.089       .  S
C628        C629   1.364       .  D
C629        C630   1.534       .  S
C629        C940   1.448       .  S
C630        C634   1.532       .  S
C630        C632   1.531       .  S
C630        H636   1.113       .  S
C631        H637   1.071       .  S
C631        C632   1.367       .  D
C632        C913   1.447       .  S
C633        H638   1.086       .  S
C633        C634   1.364       .  D
C634        C942   1.447       .  S
C639        C640   1.545       .  S
C639        C645   1.546       .  S
C639        C643   1.544       .  S
C639        C916   1.520       .  S
C640        H647   1.090       .  S
C640        C641   1.368       .  D
C641        C642   1.533       .  S
C641        C944   1.448       .  S
C642        C646   1.532       .  S
C642        C644   1.530       .  S
C642        H648   1.113       .  S
C643        H649   1.081       .  S
C643        C644   1.362       .  D
C644        C922   1.444       .  S
C645        H650   1.081       .  S
C645        C646   1.367       .  D
C646        C920   1.448       .  S
In651       O653   2.212       .  S
In651       O654   2.278       .  S
In651       O662   2.278       .  S
In651       O656   2.219       .  S
In651       O658   2.249       .  S
In651       O659   2.257       .  S
In651       O660   2.222       .  S
In651       O663   2.246       .  S
C652        O658   1.259       .  A
C652        O660   1.257       .  A
C652        C665   1.452       .  S
O653        C661   1.258       .  A
O654        C661   1.266       .  A
C655        O662   1.266       .  A
C655        O656   1.256       .  A
C655        C914   1.439       .  S
C657        O659   1.258       .  A
C657        O663   1.258       .  A
C657       C1785   1.467       .  S
In664       O666   2.219       .  S
In664       O667   2.277       .  S
In664       O675   2.278       .  S
In664       O669   2.221       .  S
In664       O671   2.222       .  S
In664       O672   2.270       .  S
In664       O673   2.253       .  S
In664       O676   2.238       .  S
C665        O671   1.256       .  A
C665        O673   1.259       .  A
O666        C674   1.257       .  A
O667        C674   1.265       .  A
C668        O675   1.265       .  A
C668        O669   1.255       .  A
C668        C923   1.438       .  S
C670        O672   1.259       .  A
C670        O676   1.255       .  A
C670       C1772   1.464       .  S
In677       O679   2.207       .  S
In677       O680   2.287       .  S
In677       O688   2.278       .  S
In677       O682   2.218       .  S
In677       O684   2.244       .  S
In677       O685   2.253       .  S
In677       O686   2.239       .  S
In677       O689   2.236       .  S
C678        O684   1.257       .  A
C678        O686   1.256       .  A
C678        C691   1.454   1_556  S
O679        C687   1.257       .  A
O680        C687   1.265       .  A
C681        O688   1.267       .  A
C681        O682   1.257       .  A
C681        C911   1.441       .  S
C683        O685   1.258       .  A
C683        O689   1.257       .  A
C687        C726   1.467   1_556  S
In690       O692   2.215       .  S
In690       O693   2.273       .  S
In690       O701   2.276       .  S
In690       O695   2.220       .  S
In690       O697   2.235       .  S
In690       O698   2.264       .  S
In690       O699   2.248   1_554  S
In690       O702   2.239       .  S
C691        O697   1.257       .  A
C691        O699   1.258   1_554  A
O692        C700   1.258       .  A
O693        C700   1.265       .  A
C694        O701   1.265       .  A
C694        O695   1.255       .  A
C694        C909   1.436       .  S
C696        O698   1.257       .  A
C696        O702   1.255       .  A
C700        C854   1.463   1_554  S
In703       O705   2.221       .  S
In703       O706   2.285       .  S
In703       O714   2.280       .  S
In703       O708   2.224       .  S
In703       O710   2.236       .  S
In703       O711   2.271       .  S
In703       O712   2.237       .  S
In703       O715   2.238       .  S
C704        O710   1.258       .  A
C704        O712   1.258       .  A
C704        C717   1.451   1_556  S
O705        C713   1.257       .  A
O706        C713   1.266       .  A
C707        O714   1.266       .  A
C707        O708   1.256       .  A
C707        C908   1.443       .  S
C709        O711   1.260       .  A
C709        O715   1.256       .  A
C713        C752   1.470   1_556  S
In716       O718   2.207       .  S
In716       O719   2.287       .  S
In716       O727   2.280       .  S
In716       O721   2.227       .  S
In716       O723   2.232       .  S
In716       O724   2.266       .  S
In716       O725   2.240   1_554  S
In716       O728   2.233       .  S
C717        O723   1.258       .  A
C717        O725   1.258   1_554  A
O718        C726   1.257       .  A
O719        C726   1.267       .  A
C720        O727   1.266       .  A
C720        O721   1.257       .  A
C720        C906   1.443       .  S
C722        O724   1.260       .  A
C722        O728   1.256       .  A
In729       O731   2.257       .  S
In729       O732   2.264       .  S
In729       O740   2.272       .  S
In729       O734   2.226       .  S
In729       O736   2.242       .  S
In729       O737   2.295       .  S
In729       O738   2.240       .  S
In729       O741   2.214       .  S
C730        O736   1.258       .  A
C730        O738   1.258       .  A
C730        C756   1.455       .  S
O731        C739   1.256       .  A
O732        C739   1.258       .  A
C733        O740   1.266       .  A
C733        O734   1.257       .  A
C733        C904   1.440       .  S
C735        O737   1.267       .  A
C735        O741   1.257       .  A
C735        C824   1.471       .  S
In742       O744   2.221       .  S
In742       O745   2.283       .  S
In742       O753   2.277       .  S
In742       O747   2.221       .  S
In742       O749   2.242       .  S
In742       O750   2.256       .  S
In742       O751   2.244   1_554  S
In742       O754   2.240       .  S
C743        O749   1.258       .  A
C743        O751   1.257   1_554  A
C743        C845   1.456   1_554  S
O744        C752   1.258       .  A
O745        C752   1.265       .  A
C746        O753   1.266       .  A
C746        O747   1.257       .  A
C746        C902   1.441       .  S
C748        O750   1.259       .  A
C748        O754   1.257       .  A
C748       C1555   1.461   1_455  S
In755       O757   2.237       .  S
In755       O758   2.275       .  S
In755       O766   2.284       .  S
In755       O760   2.220       .  S
In755       O762   2.234       .  S
In755       O763   2.297       .  S
In755       O764   2.243       .  S
In755       O767   2.221       .  S
C756        O762   1.259       .  A
C756        O764   1.260       .  A
O757        C765   1.257       .  A
O758        C765   1.262       .  A
C759        O766   1.265       .  A
C759        O760   1.254       .  A
C759        C900   1.439       .  S
C761        O763   1.266       .  A
C761        O767   1.256       .  A
C761        C811   1.473       .  S
C768        C769   1.542       .  S
C768        C774   1.543       .  S
C768        C772   1.557       .  S
C768        C896   1.528       .  S
C769        H776   1.086       .  S
C769        C770   1.364       .  D
C770        C771   1.532       .  S
C770        C891   1.445       .  S
C771        C775   1.533       .  S
C771        C773   1.529       .  S
C771        H777   1.112       .  S
C772        H778   1.082       .  S
C772        C773   1.366       .  D
C773        C893   1.450       .  S
C774        H779   1.086       .  S
C774        C775   1.364       .  D
C775        C899   1.446       .  S
C780        C781   1.542       .  S
C780        C786   1.546       .  S
C780        C784   1.546       .  S
C780        C895   1.518       .  S
C781        H788   1.087       .  S
C781        C782   1.359       .  D
C782        C783   1.531       .  S
C782        C910   1.443       .  S
C783        C787   1.534       .  S
C783        C785   1.532       .  S
C783        H789   1.112       .  S
C784        H790   1.086       .  S
C784        C785   1.368       .  D
C785        C901   1.447       .  S
C786        H791   1.086       .  S
C786        C787   1.368       .  D
C787        C905   1.450       .  S
In792       O794   2.236       .  S
In792       O795   2.284       .  S
In792       O803   2.288       .  S
In792       O797   2.224       .  S
In792       O799   2.240       .  S
In792       O800   2.283       .  S
In792       O801   2.239       .  S
In792       O804   2.213       .  S
C793        O799   1.258       .  A
C793        O801   1.258       .  A
C793        C806   1.454       .  S
O794        C802   1.256       .  A
O795        C802   1.260       .  A
C796        O803   1.265       .  A
C796        O797   1.254       .  A
C796        C894   1.442       .  S
C798        O800   1.266       .  A
C798        O804   1.257       .  A
C798        C837   1.466       .  S
In805       O807   2.221       .  S
In805       O808   2.279       .  S
In805       O816   2.282       .  S
In805       O810   2.225       .  S
In805       O812   2.235       .  S
In805       O813   2.289       .  S
In805       O814   2.246       .  S
In805       O817   2.218       .  S
C806        O812   1.258       .  A
C806        O814   1.258       .  A
O807        C815   1.255       .  A
O808        C815   1.263       .  A
C809        O816   1.265       .  A
C809        O810   1.256       .  A
C809        C889   1.441       .  S
C811        O813   1.266       .  A
C811        O817   1.259       .  A
In818       O820   2.235       .  S
In818       O821   2.276       .  S
In818       O829   2.280       .  S
In818       O823   2.223       .  S
In818       O825   2.237       .  S
In818       O826   2.291       .  S
In818       O827   2.243       .  S
In818       O830   2.214       .  S
C819        O825   1.259       .  A
C819        O827   1.259       .  A
C819        C832   1.456       .  S
O820        C828   1.256       .  A
O821        C828   1.262       .  A
C822        O829   1.264       .  A
C822        O823   1.255       .  A
C822        C892   1.439       .  S
C824        O826   1.267       .  A
C824        O830   1.258       .  A
C828       C1614   1.467   1_455  S
In831       O833   2.236       .  S
In831       O834   2.273       .  S
In831       O842   2.288       .  S
In831       O836   2.227       .  S
In831       O838   2.246       .  S
In831       O839   2.281       .  S
In831       O840   2.243       .  S
In831       O843   2.213       .  S
C832        O838   1.259       .  A
C832        O840   1.257       .  A
O833        C841   1.257       .  A
O834        C841   1.261       .  A
C835        O842   1.266       .  A
C835        O836   1.256       .  A
C835        C887   1.444       .  S
C837        O839   1.265       .  A
C837        O843   1.258       .  A
C841       C1601   1.469   1_455  S
In844       O846   2.212       .  S
In844       O847   2.274       .  S
In844       O855   2.284       .  S
In844       O849   2.224       .  S
In844       O851   2.246       .  S
In844       O852   2.267       .  S
In844       O853   2.244       .  S
In844       O856   2.246       .  S
C845        O851   1.257       .  A
C845        O853   1.256       .  A
O846        C854   1.257       .  A
O847        C854   1.265       .  A
C848        O855   1.267       .  A
C848        O849   1.256       .  A
C848        C885   1.444       .  S
C850        O852   1.257       .  A
C850        O856   1.257       .  A
C850       C1542   1.464   1_455  S
C857        C858   1.546       .  S
C857        C863   1.547       .  S
C857        C861   1.547       .  S
C857        C881   1.526       .  S
C858        H865   1.086       .  S
C858        C859   1.363       .  D
C859        C860   1.531       .  S
C859        C903   1.447       .  S
C860        C864   1.532       .  S
C860        C862   1.532       .  S
C860        H866   1.113       .  S
C861        H867   1.086       .  S
C861        C862   1.368       .  D
C862        C890   1.448       .  S
C863        H868   1.086       .  S
C863        C864   1.368       .  D
C864        C888   1.451       .  S
C869        C870   1.545       .  S
C869        C875   1.555       .  S
C869        C873   1.545       .  S
C869        C882   1.532       .  S
C870        H877   1.087       .  S
C870        C871   1.365       .  D
C871        C872   1.534       .  S
C871        C886   1.451       .  S
C872        C876   1.533       .  S
C872        C874   1.532       .  S
C872        H878   1.112       .  S
C873        H879   1.086       .  S
C873        C874   1.365       .  D
C874        C912   1.448       .  S
C875        H880   1.083       .  S
C875        C876   1.368       .  D
C876        C907   1.451       .  S
C881        H883   1.081       .  S
C881        C882   1.351       .  D
C882        H884   1.087       .  S
C885        C886   1.211       .  T
C887        C888   1.211       .  T
C889        C890   1.209       .  T
C891        C892   1.208       .  T
C893        C894   1.210       .  T
C895        H897   1.080       .  S
C895        C896   1.347       .  D
C896        H898   1.087       .  S
C899        C900   1.208       .  T
C901        C902   1.209       .  T
C903        C904   1.209       .  T
C905        C906   1.211       .  T
C907        C908   1.211       .  T
C909        C910   1.206       .  T
C911        C912   1.210       .  T
C913        C914   1.208       .  T
C915        H917   1.085       .  S
C915        C916   1.348       .  D
C916        H918   1.076       .  S
C919        C920   1.210       .  T
C921        C922   1.207       .  T
C923        C924   1.208       .  T
C925        C926   1.211       .  T
C927        C928   1.209       .  T
C929        H931   1.081       .  S
C929        C930   1.350       .  D
C930        H932   1.087       .  S
C933        C934   1.210       .  T
C935        C936   1.209       .  T
C937        C938   1.208       .  T
C939        C940   1.209       .  T
C941        C942   1.209       .  T
C943        C944   1.209       .  T
In945       O947   2.245       .  S
In945       O948   2.260       .  S
In945       O956   2.276       .  S
In945       O950   2.228       .  S
In945       O952   2.250       .  S
In945       O953   2.290       .  S
In945       O954   2.247       .  S
In945       O957   2.202       .  S
C946        O952   1.259       .  A
C946        O954   1.258       .  A
C946       C1011   1.461   1_556  S
O947        C955   1.257       .  A
O948        C955   1.259       .  A
C949        O956   1.265       .  A
C949        O950   1.258       .  A
C949       C1415   1.442       .  S
C951        O953   1.267       .  A
C951        O957   1.257       .  A
C951       C1003   1.467   1_556  S
C955       C1181   1.464       .  S
In958       O960   2.209       .  S
In958       O961   2.284       .  S
In958       O969   2.284       .  S
In958       O963   2.226       .  S
In958       O965   2.241       .  S
In958       O966   2.272       .  S
In958       O967   2.249       .  S
In958       O970   2.246       .  S
C959        O965   1.258       .  A
C959        O967   1.257       .  A
C959       C1048   1.457       .  S
O960        C968   1.257       .  A
O961        C968   1.266       .  A
C962        O969   1.266       .  A
C962        O963   1.256       .  A
C962       C1413   1.444       .  S
C964        O966   1.258       .  A
C964        O970   1.256       .  A
C964       C1211   1.467       .  S
C968        C994   1.467       .  S
In971       O973   2.210       .  S
In971       O974   2.286       .  S
In971       O982   2.281       .  S
In971       O976   2.228       .  S
In971       O978   2.238       .  S
In971       O979   2.273       .  S
In971       O980   2.240       .  S
In971       O983   2.230       .  S
C972        O978   1.259       .  A
C972        O980   1.257       .  A
C972        C985   1.453       .  S
O973        C981   1.257       .  A
O974        C981   1.266       .  A
C975        O982   1.265       .  A
C975        O976   1.256       .  A
C975       C1411   1.443       .  S
C977        O979   1.261       .  A
C977        O983   1.257       .  A
C977       C1759   1.465   1_545  S
C981       C1146   1.469       .  S
In984       O986   2.214       .  S
In984       O987   2.279       .  S
In984       O995   2.279       .  S
In984       O989   2.225       .  S
In984       O991   2.240       .  S
In984       O992   2.272       .  S
In984       O993   2.238       .  S
In984       O996   2.226       .  S
C985        O991   1.259       .  A
C985        O993   1.257       .  A
O986        C994   1.259       .  A
O987        C994   1.265       .  A
C988        O995   1.264       .  A
C988        O989   1.256       .  A
C988       C1409   1.439       .  S
C990        O992   1.262       .  A
C990        O996   1.256       .  A
C990       C1746   1.465   1_545  S
In997       O999   2.226       .  S
In997      O1000   2.272       .  S
In997      O1008   2.279       .  S
In997      O1002   2.219       .  S
In997      O1004   2.224       .  S
In997      O1005   2.291       .  S
In997      O1006   2.253   1_554  S
In997      O1009   2.206       .  S
C998       O1004   1.257       .  A
C998       O1006   1.260   1_554  A
C998       C1087   1.455   1_554  S
O999       C1007   1.255       .  A
O1000      C1007   1.262       .  A
C1001      O1008   1.266       .  A
C1001      O1002   1.256       .  A
C1001      C1407   1.439       .  S
C1003      O1005   1.266       .  A
C1003      O1009   1.257       .  A
C1007      C1640   1.464   1_545  S
In1010     O1012   2.243       .  S
In1010     O1013   2.282       .  S
In1010     O1021   2.295       .  S
In1010     O1015   2.222       .  S
In1010     O1017   2.245       .  S
In1010     O1018   2.295       .  S
In1010     O1019   2.251   1_554  S
In1010     O1022   2.217       .  S
C1011      O1017   1.258       .  A
C1011      O1019   1.259   1_554  A
O1012      C1020   1.257       .  A
O1013      C1020   1.261       .  A
C1014      O1021   1.266       .  A
C1014      O1015   1.254       .  A
C1014      C1405   1.443       .  S
C1016      O1018   1.266       .  A
C1016      O1022   1.256       .  A
C1016      C1066   1.471   1_554  S
C1020      C1194   1.470       .  S
C1023      C1024   1.542       .  S
C1023      C1029   1.545       .  S
C1023      C1027   1.556       .  S
C1023      C1402   1.528       .  S
C1024      H1031   1.086       .  S
C1024      C1025   1.364       .  D
C1025      C1026   1.533       .  S
C1025      C1408   1.446       .  S
C1026      C1030   1.534       .  S
C1026      C1028   1.531       .  S
C1026      H1032   1.112       .  S
C1027      H1033   1.082       .  S
C1027      C1028   1.367       .  D
C1028      C1399   1.452       .  S
C1029      H1034   1.086       .  S
C1029      C1030   1.365       .  D
C1030      C1406   1.451       .  S
C1035      C1036   1.545       .  S
C1035      C1041   1.545       .  S
C1035      C1039   1.546       .  S
C1035      C1401   1.520       .  S
C1036      H1043   1.086       .  S
C1036      C1037   1.362       .  D
C1037      C1038   1.530       .  S
C1037      C1396   1.445       .  S
C1038      C1042   1.533       .  S
C1038      C1040   1.532       .  S
C1038      H1044   1.113       .  S
C1039      H1045   1.086       .  S
C1039      C1040   1.367       .  D
C1040      C1410   1.445       .  S
C1041      H1046   1.086       .  S
C1041      C1042   1.366       .  D
C1042      C1397   1.448       .  S
In1047     O1049   2.201       .  S
In1047     O1050   2.277       .  S
In1047     O1058   2.278       .  S
In1047     O1052   2.221       .  S
In1047     O1054   2.248       .  S
In1047     O1055   2.259       .  S
In1047     O1056   2.239       .  S
In1047     O1059   2.254       .  S
C1048      O1054   1.259       .  A
C1048      O1056   1.257       .  A
O1049      C1057   1.257       .  A
O1050      C1057   1.266       .  A
C1051      O1058   1.266       .  A
C1051      O1052   1.257       .  A
C1051      C1398   1.441       .  S
C1053      O1055   1.258       .  A
C1053      O1059   1.258       .  A
C1053      C1237   1.469       .  S
C1057      C1133   1.461       .  S
In1060     O1062   2.250       .  S
In1060     O1063   2.264       .  S
In1060     O1071   2.281       .  S
In1060     O1065   2.227       .  S
In1060     O1067   2.250       .  S
In1060     O1068   2.290       .  S
In1060     O1069   2.239       .  S
In1060     O1072   2.216       .  S
C1061      O1067   1.258       .  A
C1061      O1069   1.257       .  A
C1061      C1074   1.456   1_556  S
O1062      C1070   1.256       .  A
O1063      C1070   1.258       .  A
C1064      O1071   1.266       .  A
C1064      O1065   1.257       .  A
C1064      C1393   1.443       .  S
C1066      O1068   1.266       .  A
C1066      O1072   1.258       .  A
In1073     O1075   2.237       .  S
In1073     O1076   2.267       .  S
In1073     O1084   2.288       .  S
In1073     O1078   2.229       .  S
In1073     O1080   2.235       .  S
In1073     O1081   2.274       .  S
In1073     O1082   2.248   1_554  S
In1073     O1085   2.205       .  S
C1074      O1080   1.258       .  A
C1074      O1082   1.258   1_554  A
O1075      C1083   1.256       .  A
O1076      C1083   1.258       .  A
C1077      O1084   1.266       .  A
C1077      O1078   1.256       .  A
C1077      C1400   1.445       .  S
C1079      O1081   1.265       .  A
C1079      O1085   1.257       .  A
C1079      C1092   1.460   1_554  S
In1086     O1088   2.228       .  S
In1086     O1089   2.271       .  S
In1086     O1097   2.277       .  S
In1086     O1091   2.221       .  S
In1086     O1093   2.254       .  S
In1086     O1094   2.268       .  S
In1086     O1095   2.234       .  S
In1086     O1098   2.207       .  S
C1087      O1093   1.257       .  A
C1087      O1095   1.256       .  A
O1088      C1096   1.256       .  A
O1089      C1096   1.258       .  A
C1090      O1097   1.264       .  A
C1090      O1091   1.255       .  A
C1090      C1391   1.436       .  S
C1092      O1094   1.265       .  A
C1092      O1098   1.259       .  A
C1096      C1627   1.462   1_545  S
C1099      C1100   1.549       .  S
C1099      C1105   1.547       .  S
C1099      C1103   1.545       .  S
C1099      C1387   1.526       .  S
C1100      H1107   1.086       .  S
C1100      C1101   1.369       .  D
C1101      C1102   1.532       .  S
C1101      C1412   1.449       .  S
C1102      C1106   1.532       .  S
C1102      C1104   1.530       .  S
C1102      H1108   1.113       .  S
C1103      H1109   1.087       .  S
C1103      C1104   1.362       .  D
C1104      C1385   1.445       .  S
C1105      H1110   1.086       .  S
C1105      C1106   1.369       .  D
C1106      C1414   1.450       .  S
C1111      C1112   1.547       .  S
C1111      C1117   1.542       .  S
C1111      C1115   1.557       .  S
C1111      C1388   1.534       .  S
C1112      H1119   1.086       .  S
C1112      C1113   1.367       .  D
C1113      C1114   1.530       .  S
C1113      C1416   1.449       .  S
C1114      C1118   1.531       .  S
C1114      C1116   1.530       .  S
C1114      H1120   1.113       .  S
C1115      H1121   1.083       .  S
C1115      C1116   1.368       .  D
C1116      C1394   1.450       .  S
C1117      H1122   1.087       .  S
C1117      C1118   1.363       .  D
C1118      C1392   1.444       .  S
In1123     O1125   2.198       .  S
In1123     O1126   2.275       .  S
In1123     O1134   2.275       .  S
In1123     O1128   2.220       .  S
In1123     O1130   2.233       .  S
In1123     O1131   2.258       .  S
In1123     O1132   2.247       .  S
In1123     O1135   2.217       .  S
C1124      O1130   1.258       .  A
C1124      O1132   1.259       .  A
C1124      C1137   1.454       .  S
O1125      C1133   1.258       .  A
O1126      C1133   1.266       .  A
C1127      O1134   1.265       .  A
C1127      O1128   1.256       .  A
C1127      C1386   1.438       .  S
C1129      O1131   1.260       .  A
C1129      O1135   1.255       .  A
In1136     O1138   2.216       .  S
In1136     O1139   2.290       .  S
In1136     O1147   2.283       .  S
In1136     O1141   2.215       .  S
In1136     O1143   2.241       .  S
In1136     O1144   2.269       .  S
In1136     O1145   2.240       .  S
In1136     O1148   2.237       .  S
C1137      O1143   1.257       .  A
C1137      O1145   1.258       .  A
O1138      C1146   1.257       .  A
O1139      C1146   1.265       .  A
C1140      O1147   1.266       .  A
C1140      O1141   1.254       .  A
C1140      C1395   1.437       .  S
C1142      O1144   1.260       .  A
C1142      O1148   1.256       .  A
In1149     O1151   2.212       .  S
In1149     O1152   2.287       .  S
In1149     O1160   2.281       .  S
In1149     O1154   2.218       .  S
In1149     O1156   2.244       .  S
In1149     O1157   2.271       .  S
In1149     O1158   2.242       .  S
In1149     O1161   2.224       .  S
C1150      O1156   1.257       .  A
C1150      O1158   1.257       .  A
C1150      C1163   1.456   1_556  S
O1151      C1159   1.258       .  A
O1152      C1159   1.266       .  A
C1153      O1160   1.265       .  A
C1153      O1154   1.255       .  A
C1153      C1383   1.439       .  S
C1155      O1157   1.260       .  A
C1155      O1161   1.255       .  A
C1155      C1568   1.461       .  S
C1159      C1198   1.469   1_556  S
In1162     O1164   2.205       .  S
In1162     O1165   2.291       .  S
In1162     O1173   2.276       .  S
In1162     O1167   2.213       .  S
In1162     O1169   2.234       .  S
In1162     O1170   2.269       .  S
In1162     O1171   2.247   1_554  S
In1162     O1174   2.240       .  S
C1163      O1169   1.258       .  A
C1163      O1171   1.260   1_554  A
O1164      C1172   1.255   1_554  A
O1165      C1172   1.266   1_554  A
C1166      O1173   1.265       .  A
C1166      O1167   1.255       .  A
C1166      C1381   1.435       .  S
C1168      O1170   1.261       .  A
C1168      O1174   1.256       .  A
C1168      C1479   1.465       .  S
C1172      C1326   1.467       .  S
In1175     O1177   2.206       .  S
In1175     O1178   2.288       .  S
In1175     O1186   2.285       .  S
In1175     O1180   2.232       .  S
In1175     O1182   2.255       .  S
In1175     O1183   2.261       .  S
In1175     O1184   2.250       .  S
In1175     O1187   2.249       .  S
C1176      O1182   1.258       .  A
C1176      O1184   1.255       .  A
C1176      C1189   1.459   1_556  S
O1177      C1185   1.258       .  A
O1178      C1185   1.266       .  A
C1179      O1186   1.267       .  A
C1179      O1180   1.257       .  A
C1179      C1380   1.448       .  S
C1181      O1183   1.257       .  A
C1181      O1187   1.256       .  A
C1185      C1224   1.468   1_556  S
In1188     O1190   2.212       .  S
In1188     O1191   2.291       .  S
In1188     O1199   2.288       .  S
In1188     O1193   2.231       .  S
In1188     O1195   2.242       .  S
In1188     O1196   2.275       .  S
In1188     O1197   2.244   1_554  S
In1188     O1200   2.238       .  S
C1189      O1195   1.260       .  A
C1189      O1197   1.259   1_554  A
O1190      C1198   1.256       .  A
O1191      C1198   1.267       .  A
C1192      O1199   1.265       .  A
C1192      O1193   1.256       .  A
C1192      C1378   1.444       .  S
C1194      O1196   1.261       .  A
C1194      O1200   1.257       .  A
In1201     O1203   2.239       .  S
In1201     O1204   2.271       .  S
In1201     O1212   2.268       .  S
In1201     O1206   2.210       .  S
In1201     O1208   2.226       .  S
In1201     O1209   2.299       .  S
In1201     O1210   2.243       .  S
In1201     O1213   2.209       .  S
C1202      O1208   1.256       .  A
C1202      O1210   1.259       .  A
C1202      C1228   1.451       .  S
O1203      C1211   1.256       .  A
O1204      C1211   1.261       .  A
C1205      O1212   1.266       .  A
C1205      O1206   1.255       .  A
C1205      C1376   1.433       .  S
C1207      O1209   1.267       .  A
C1207      O1213   1.256       .  A
C1207      C1296   1.471       .  S
In1214     O1216   2.207       .  S
In1214     O1217   2.293       .  S
In1214     O1225   2.286       .  S
In1214     O1219   2.225       .  S
In1214     O1221   2.245       .  S
In1214     O1222   2.262       .  S
In1214     O1223   2.245   1_554  S
In1214     O1226   2.222       .  S
C1215      O1221   1.259       .  A
C1215      O1223   1.257   1_554  A
C1215      C1317   1.458   1_554  S
O1216      C1224   1.256       .  A
O1217      C1224   1.266       .  A
C1218      O1225   1.266       .  A
C1218      O1219   1.257       .  A
C1218      C1374   1.443       .  S
C1220      O1222   1.262       .  A
C1220      O1226   1.257       .  A
In1227     O1229   2.256       .  S
In1227     O1230   2.269       .  S
In1227     O1238   2.281       .  S
In1227     O1232   2.222       .  S
In1227     O1234   2.240       .  S
In1227     O1235   2.293       .  S
In1227     O1236   2.236       .  S
In1227     O1239   2.219       .  S
C1228      O1234   1.257       .  A
C1228      O1236   1.257       .  A
O1229      C1237   1.256       .  A
O1230      C1237   1.259       .  A
C1231      O1238   1.267       .  A
C1231      O1232   1.256       .  A
C1231      C1372   1.442       .  S
C1233      O1235   1.267       .  A
C1233      O1239   1.258       .  A
C1233      C1283   1.473       .  S
C1240      C1241   1.544       .  S
C1240      C1246   1.544       .  S
C1240      C1244   1.555       .  S
C1240      C1368   1.529       .  S
C1241      H1248   1.086       .  S
C1241      C1242   1.365       .  D
C1242      C1243   1.533       .  S
C1242      C1363   1.450       .  S
C1243      C1247   1.534       .  S
C1243      C1245   1.531       .  S
C1243      H1249   1.112       .  S
C1244      H1250   1.082       .  S
C1244      C1245   1.365       .  D
C1245      C1365   1.450       .  S
C1246      H1251   1.086       .  S
C1246      C1247   1.365       .  D
C1247      C1371   1.449       .  S
C1252      C1253   1.543       .  S
C1252      C1258   1.545       .  S
C1252      C1256   1.546       .  S
C1252      C1367   1.519       .  S
C1253      H1260   1.087       .  S
C1253      C1254   1.360       .  D
C1254      C1255   1.532       .  S
C1254      C1382   1.443       .  S
C1255      C1259   1.534       .  S
C1255      C1257   1.533       .  S
C1255      H1261   1.112       .  S
C1256      H1262   1.086       .  S
C1256      C1257   1.368       .  D
C1257      C1373   1.449       .  S
C1258      H1263   1.086       .  S
C1258      C1259   1.367       .  D
C1259      C1377   1.450       .  S
In1264     O1266   2.251       .  S
In1264     O1267   2.280       .  S
In1264     O1275   2.286       .  S
In1264     O1269   2.230       .  S
In1264     O1271   2.235       .  S
In1264     O1272   2.279       .  S
In1264     O1273   2.236       .  S
In1264     O1276   2.213       .  S
C1265      O1271   1.259       .  A
C1265      O1273   1.258       .  A
C1265      C1278   1.452       .  S
O1266      C1274   1.257       .  A
O1267      C1274   1.259       .  A
C1268      O1275   1.265       .  A
C1268      O1269   1.255       .  A
C1268      C1366   1.443       .  S
C1270      O1272   1.267       .  A
C1270      O1276   1.256       .  A
C1270      C1309   1.464       .  S
C1274      C1462   1.474       .  S
In1277     O1279   2.236       .  S
In1277     O1280   2.269       .  S
In1277     O1288   2.284       .  S
In1277     O1282   2.226       .  S
In1277     O1284   2.236       .  S
In1277     O1285   2.294       .  S
In1277     O1286   2.237       .  S
In1277     O1289   2.220       .  S
C1278      O1284   1.258       .  A
C1278      O1286   1.257       .  A
O1279      C1287   1.256       .  A
O1280      C1287   1.261       .  A
C1281      O1288   1.267       .  A
C1281      O1282   1.257       .  A
C1281      C1361   1.446       .  S
C1283      O1285   1.266       .  A
C1283      O1289   1.257       .  A
C1287      C1449   1.465       .  S
In1290     O1292   2.242       .  S
In1290     O1293   2.279       .  S
In1290     O1301   2.287       .  S
In1290     O1295   2.227       .  S
In1290     O1297   2.234       .  S
In1290     O1298   2.298       .  S
In1290     O1299   2.252       .  S
In1290     O1302   2.208       .  S
C1291      O1297   1.257       .  A
C1291      O1299   1.259       .  A
C1291      C1304   1.457       .  S
O1292      C1300   1.256       .  A
O1293      C1300   1.261       .  A
C1294      O1301   1.266       .  A
C1294      O1295   1.256       .  A
C1294      C1364   1.444       .  S
C1296      O1298   1.267       .  A
C1296      O1302   1.257       .  A
In1303     O1305   2.241       .  S
In1303     O1306   2.267       .  S
In1303     O1314   2.283       .  S
In1303     O1308   2.228       .  S
In1303     O1310   2.253       .  S
In1303     O1311   2.275       .  S
In1303     O1312   2.238       .  S
In1303     O1315   2.216       .  S
C1304      O1310   1.258       .  A
C1304      O1312   1.256       .  A
O1305      C1313   1.258       .  A
O1306      C1313   1.259       .  A
C1307      O1314   1.265       .  A
C1307      O1308   1.255       .  A
C1307      C1359   1.443       .  S
C1309      O1311   1.263       .  A
C1309      O1315   1.258       .  A
In1316     O1318   2.206       .  S
In1316     O1319   2.289       .  S
In1316     O1327   2.282       .  S
In1316     O1321   2.225       .  S
In1316     O1323   2.246       .  S
In1316     O1324   2.274       .  S
In1316     O1325   2.250       .  S
In1316     O1328   2.239       .  S
C1317      O1323   1.257       .  A
C1317      O1325   1.257       .  A
O1318      C1326   1.257       .  A
O1319      C1326   1.266       .  A
C1320      O1327   1.266       .  A
C1320      O1321   1.256       .  A
C1320      C1357   1.443       .  S
C1322      O1324   1.261       .  A
C1322      O1328   1.257       .  A
C1329      C1330   1.544       .  S
C1329      C1335   1.549       .  S
C1329      C1333   1.551       .  S
C1329      C1353   1.532       .  S
C1330      H1337   1.086       .  S
C1330      C1331   1.360       .  D
C1331      C1332   1.529       .  S
C1331      C1375   1.442       .  S
C1332      C1336   1.530       .  S
C1332      C1334   1.532       .  S
C1332      H1338   1.113       .  S
C1333      H1339   1.086       .  S
C1333      C1334   1.372       .  D
C1334      C1362   1.453       .  S
C1335      H1340   1.086       .  S
C1335      C1336   1.370       .  D
C1336      C1360   1.449       .  S
C1341      C1342   1.547       .  S
C1341      C1347   1.559       .  S
C1341      C1345   1.543       .  S
C1341      C1354   1.538       .  S
C1342      H1349   1.086       .  S
C1342      C1343   1.367       .  D
C1343      C1344   1.531       .  S
C1343      C1358   1.450       .  S
C1344      C1348   1.531       .  S
C1344      C1346   1.531       .  S
C1344      H1350   1.113       .  S
C1345      H1351   1.086       .  S
C1345      C1346   1.364       .  D
C1346      C1384   1.446       .  S
C1347      H1352   1.083       .  S
C1347      C1348   1.372       .  D
C1348      C1379   1.455       .  S
C1353      H1355   1.082       .  S
C1353      C1354   1.351       .  D
C1354      H1356   1.087       .  S
C1357      C1358   1.211       .  T
C1359      C1360   1.210       .  T
C1361      C1362   1.213       .  T
C1363      C1364   1.211       .  T
C1365      C1366   1.211       .  T
C1367      H1369   1.080       .  S
C1367      C1368   1.348       .  D
C1368      H1370   1.087       .  S
C1371      C1372   1.210       .  T
C1373      C1374   1.211       .  T
C1375      C1376   1.205       .  T
C1377      C1378   1.211       .  T
C1379      C1380   1.213       .  T
C1381      C1382   1.206       .  T
C1383      C1384   1.208       .  T
C1385      C1386   1.208       .  T
C1387      H1389   1.081       .  S
C1387      C1388   1.350       .  D
C1388      H1390   1.087       .  S
C1391      C1392   1.207       .  T
C1393      C1394   1.211       .  T
C1395      C1396   1.208       .  T
C1397      C1398   1.209       .  T
C1399      C1400   1.212       .  T
C1401      H1403   1.081       .  S
C1401      C1402   1.348       .  D
C1402      H1404   1.087       .  S
C1405      C1406   1.211       .  T
C1407      C1408   1.208       .  T
C1409      C1410   1.208       .  T
C1411      C1412   1.211       .  T
C1413      C1414   1.211       .  T
C1415      C1416   1.210       .  T
In1417     O1419   2.234       .  S
In1417     O1420   2.272       .  S
In1417     O1428   2.276       .  S
In1417     O1422   2.228       .  S
In1417     O1424   2.249       .  S
In1417     O1425   2.284       .  S
In1417     O1426   2.228       .  S
In1417     O1429   2.212       .  S
C1418      O1424   1.259       .  A
C1418      O1426   1.257       .  A
C1418      C1483   1.454   1_556  S
O1419      C1427   1.258       .  A
O1420      C1427   1.260       .  A
C1421      O1428   1.264       .  A
C1421      O1422   1.256       .  A
C1421      C1887   1.439       .  S
C1423      O1425   1.266       .  A
C1423      O1429   1.257       .  A
C1423      C1475   1.467   1_556  S
C1427      C1653   1.468       .  S
In1430     O1432   2.218       .  S
In1430     O1433   2.293       .  S
In1430     O1441   2.279       .  S
In1430     O1435   2.225       .  S
In1430     O1437   2.236       .  S
In1430     O1438   2.271       .  S
In1430     O1439   2.249       .  S
In1430     O1442   2.247       .  S
C1431      O1437   1.257       .  A
C1431      O1439   1.257       .  A
C1431      C1520   1.454       .  S
O1432      C1440   1.258       .  A
O1433      C1440   1.266       .  A
C1434      O1441   1.267       .  A
C1434      O1435   1.257       .  A
C1434      C1885   1.443       .  S
C1436      O1438   1.260       .  A
C1436      O1442   1.256       .  A
C1436      C1683   1.468       .  S
C1440      C1466   1.473       .  S
In1443     O1445   2.205       .  S
In1443     O1446   2.274       .  S
In1443     O1454   2.273       .  S
In1443     O1448   2.217       .  S
In1443     O1450   2.236       .  S
In1443     O1451   2.266       .  S
In1443     O1452   2.234       .  S
In1443     O1455   2.240       .  S
C1444      O1450   1.257       .  A
C1444      O1452   1.256       .  A
C1444      C1457   1.449       .  S
O1445      C1453   1.257       .  A
O1446      C1453   1.265       .  A
C1447      O1454   1.265       .  A
C1447      O1448   1.255       .  A
C1447      C1883   1.436       .  S
C1449      O1451   1.259       .  A
C1449      O1455   1.256       .  A
C1453      C1618   1.462       .  S
In1456     O1458   2.216       .  S
In1456     O1459   2.298       .  S
In1456     O1467   2.279       .  S
In1456     O1461   2.223       .  S
In1456     O1463   2.228       .  S
In1456     O1464   2.279       .  S
In1456     O1465   2.232       .  S
In1456     O1468   2.242       .  S
C1457      O1463   1.259       .  A
C1457      O1465   1.258       .  A
O1458      C1466   1.256       .  A
O1459      C1466   1.268       .  A
C1460      O1467   1.266       .  A
C1460      O1461   1.256       .  A
C1460      C1881   1.440       .  S
C1462      O1464   1.263       .  A
C1462      O1468   1.257       .  A
In1469     O1471   2.238       .  S
In1469     O1472   2.260       .  S
In1469     O1480   2.281       .  S
In1469     O1474   2.221       .  S
In1469     O1476   2.244       .  S
In1469     O1477   2.283       .  S
In1469     O1478   2.236   1_554  S
In1469     O1481   2.211       .  S
C1470      O1476   1.259       .  A
C1470      O1478   1.257   1_554  A
C1470      C1559   1.455   1_554  S
O1471      C1479   1.258       .  A
O1472      C1479   1.260       .  A
C1473      O1480   1.265       .  A
C1473      O1474   1.256       .  A
C1473      C1879   1.440       .  S
C1475      O1477   1.266       .  A
C1475      O1481   1.257       .  A
In1482     O1484   2.232       .  S
In1482     O1485   2.269       .  S
In1482     O1493   2.286       .  S
In1482     O1487   2.233       .  S
In1482     O1489   2.228       .  S
In1482     O1490   2.289       .  S
In1482     O1491   2.253   1_554  S
In1482     O1494   2.205       .  S
C1483      O1489   1.257       .  A
C1483      O1491   1.258   1_554  A
O1484      C1492   1.255       .  A
O1485      C1492   1.259       .  A
C1486      O1493   1.266       .  A
C1486      O1487   1.256       .  A
C1486      C1877   1.447       .  S
C1488      O1490   1.266       .  A
C1488      O1494   1.257       .  A
C1488      C1538   1.466   1_554  S
C1492      C1666   1.462       .  S
C1495      C1496   1.545       .  S
C1495      C1501   1.549       .  S
C1495      C1499   1.542       .  S
C1495      C1874   1.520       .  S
C1496      H1503   1.081       .  S
C1496      C1497   1.367       .  D
C1497      C1498   1.533       .  S
C1497      C1880   1.446       .  S
C1498      C1502   1.533       .  S
C1498      C1500   1.531       .  S
C1498      H1504   1.112       .  S
C1499      H1505   1.084       .  S
C1499      C1500   1.359       .  D
C1500      C1871   1.441       .  S
C1501      H1506   1.087       .  S
C1501      C1502   1.370       .  D
C1502      C1878   1.453       .  S
C1507      C1508   1.556       .  S
C1507      C1513   1.543       .  S
C1507      C1511   1.545       .  S
C1507      C1873   1.529       .  S
C1508      H1515   1.084       .  S
C1508      C1509   1.366       .  D
C1509      C1510   1.529       .  S
C1509      C1868   1.449       .  S
C1510      C1514   1.530       .  S
C1510      C1512   1.530       .  S
C1510      H1516   1.114       .  S
C1511      H1517   1.084       .  S
C1511      C1512   1.366       .  D
C1512      C1882   1.447       .  S
C1513      H1518   1.093       .  S
C1513      C1514   1.364       .  D
C1514      C1869   1.445       .  S
In1519     O1521   2.228       .  S
In1519     O1522   2.280       .  S
In1519     O1530   2.272       .  S
In1519     O1524   2.223       .  S
In1519     O1526   2.248       .  S
In1519     O1527   2.265       .  S
In1519     O1528   2.234       .  S
In1519     O1531   2.259       .  S
C1520      O1526   1.258       .  A
C1520      O1528   1.256       .  A
O1521      C1529   1.259       .  A
O1522      C1529   1.266       .  A
C1523      O1530   1.266       .  A
C1523      O1524   1.258       .  A
C1523      C1870   1.439       .  S
C1525      O1527   1.257       .  A
C1525      O1531   1.257       .  A
C1525      C1709   1.470       .  S
C1529      C1605   1.472       .  S
In1532     O1534   2.236       .  S
In1532     O1535   2.265       .  S
In1532     O1543   2.278       .  S
In1532     O1537   2.218       .  S
In1532     O1539   2.235       .  S
In1532     O1540   2.288       .  S
In1532     O1541   2.246       .  S
In1532     O1544   2.205       .  S
C1533      O1539   1.257       .  A
C1533      O1541   1.258       .  A
C1533      C1546   1.454   1_556  S
O1534      C1542   1.256       .  A
O1535      C1542   1.260       .  A
C1536      O1543   1.266       .  A
C1536      O1537   1.256       .  A
C1536      C1865   1.439       .  S
C1538      O1540   1.266       .  A
C1538      O1544   1.257       .  A
In1545     O1547   2.244       .  S
In1545     O1548   2.256       .  S
In1545     O1556   2.267       .  S
In1545     O1550   2.216       .  S
In1545     O1552   2.244       .  S
In1545     O1553   2.279       .  S
In1545     O1554   2.237   1_554  S
In1545     O1557   2.193       .  S
C1546      O1552   1.258       .  A
C1546      O1554   1.257   1_554  A
O1547      C1555   1.256       .  A
O1548      C1555   1.258       .  A
C1549      O1556   1.265       .  A
C1549      O1550   1.256       .  A
C1549      C1872   1.434       .  S
C1551      O1553   1.266       .  A
C1551      O1557   1.257       .  A
C1551      C1564   1.459   1_554  S
In1558     O1560   2.223       .  S
In1558     O1561   2.269       .  S
In1558     O1569   2.278       .  S
In1558     O1563   2.223       .  S
In1558     O1565   2.234       .  S
In1558     O1566   2.282       .  S
In1558     O1567   2.245       .  S
In1558     O1570   2.195       .  S
C1559      O1565   1.258       .  A
C1559      O1567   1.258       .  A
O1560      C1568   1.256       .  A
O1561      C1568   1.260       .  A
C1562      O1569   1.265       .  A
C1562      O1563   1.256       .  A
C1562      C1863   1.441       .  S
C1564      O1566   1.265       .  A
C1564      O1570   1.256       .  A
C1571      C1572   1.544       .  S
C1571      C1577   1.548       .  S
C1571      C1575   1.545       .  S
C1571      C1859   1.521       .  S
C1572      H1579   1.076       .  S
C1572      C1573   1.362       .  D
C1573      C1574   1.531       .  S
C1573      C1884   1.443       .  S
C1574      C1578   1.533       .  S
C1574      C1576   1.533       .  S
C1574      H1580   1.114       .  S
C1575      H1581   1.082       .  S
C1575      C1576   1.367       .  D
C1576      C1857   1.447       .  S
C1577      H1582   1.077       .  S
C1577      C1578   1.370       .  D
C1578      C1886   1.449       .  S
C1583      C1584   1.543       .  S
C1583      C1589   1.555       .  S
C1583      C1587   1.546       .  S
C1583      C1860   1.529       .  S
C1584      H1591   1.089       .  S
C1584      C1585   1.364       .  D
C1585      C1586   1.529       .  S
C1585      C1888   1.444       .  S
C1586      C1590   1.530       .  S
C1586      C1588   1.529       .  S
C1586      H1592   1.113       .  S
C1587      H1593   1.081       .  S
C1587      C1588   1.366       .  D
C1588      C1866   1.446       .  S
C1589      H1594   1.082       .  S
C1589      C1590   1.367       .  D
C1590      C1864   1.448       .  S
In1595     O1597   2.227       .  S
In1595     O1598   2.280       .  S
In1595     O1606   2.281       .  S
In1595     O1600   2.218       .  S
In1595     O1602   2.236       .  S
In1595     O1603   2.279       .  S
In1595     O1604   2.237       .  S
In1595     O1607   2.238       .  S
C1596      O1602   1.258       .  A
C1596      O1604   1.257       .  A
C1596      C1609   1.452       .  S
O1597      C1605   1.259       .  A
O1598      C1605   1.266       .  A
C1599      O1606   1.266       .  A
C1599      O1600   1.256       .  A
C1599      C1858   1.440       .  S
C1601      O1603   1.261       .  A
C1601      O1607   1.255       .  A
In1608     O1610   2.205       .  S
In1608     O1611   2.277       .  S
In1608     O1619   2.281       .  S
In1608     O1613   2.226       .  S
In1608     O1615   2.236       .  S
In1608     O1616   2.272       .  S
In1608     O1617   2.242       .  S
In1608     O1620   2.241       .  S
C1609      O1615   1.258       .  A
C1609      O1617   1.257       .  A
O1610      C1618   1.257       .  A
O1611      C1618   1.266       .  A
C1612      O1619   1.266       .  A
C1612      O1613   1.255       .  A
C1612      C1867   1.442       .  S
C1614      O1616   1.259       .  A
C1614      O1620   1.257       .  A
In1621     O1623   2.218       .  S
In1621     O1624   2.287       .  S
In1621     O1632   2.277       .  S
In1621     O1626   2.221       .  S
In1621     O1628   2.236       .  S
In1621     O1629   2.273       .  S
In1621     O1630   2.242   1_556  S
In1621     O1633   2.220       .  S
C1622      O1628   1.259       .  A
C1622      O1630   1.258   1_556  A
C1622      C1635   1.455   1_556  S
O1623      C1631   1.257       .  A
O1624      C1631   1.267       .  A
C1625      O1632   1.266       .  A
C1625      O1626   1.257       .  A
C1625      C1855   1.440       .  S
C1627      O1629   1.262       .  A
C1627      O1633   1.255       .  A
C1631      C1670   1.470   1_556  S
In1634     O1636   2.214       .  S
In1634     O1637   2.277       .  S
In1634     O1645   2.290       .  S
In1634     O1639   2.232       .  S
In1634     O1641   2.245       .  S
In1634     O1642   2.270       .  S
In1634     O1643   2.244       .  S
In1634     O1646   2.236       .  S
C1635      O1641   1.258       .  A
C1635      O1643   1.257       .  A
O1636      C1644   1.258       .  A
O1637      C1644   1.266       .  A
C1638      O1645   1.265       .  A
C1638      O1639   1.255       .  A
C1638      C1853   1.446       .  S
C1640      O1642   1.258       .  A
C1640      O1646   1.256       .  A
C1644      C1798   1.467   1_554  S
In1647     O1649   2.217       .  S
In1647     O1650   2.292       .  S
In1647     O1658   2.275       .  S
In1647     O1652   2.218       .  S
In1647     O1654   2.228       .  S
In1647     O1655   2.281       .  S
In1647     O1656   2.242   1_556  S
In1647     O1659   2.234       .  S
C1648      O1654   1.258       .  A
C1648      O1656   1.260   1_556  A
C1648      C1661   1.453   1_556  S
O1649      C1657   1.257       .  A
O1650      C1657   1.267       .  A
C1651      O1658   1.265       .  A
C1651      O1652   1.256       .  A
C1651      C1852   1.437       .  S
C1653      O1655   1.262       .  A
C1653      O1659   1.255       .  A
C1657      C1696   1.471   1_556  S
In1660     O1662   2.219       .  S
In1660     O1663   2.279       .  S
In1660     O1671   2.277       .  S
In1660     O1665   2.220       .  S
In1660     O1667   2.248       .  S
In1660     O1668   2.269       .  S
In1660     O1669   2.240       .  S
In1660     O1672   2.234       .  S
C1661      O1667   1.257       .  A
C1661      O1669   1.256       .  A
O1662      C1670   1.260       .  A
O1663      C1670   1.266       .  A
C1664      O1671   1.265       .  A
C1664      O1665   1.256       .  A
C1664      C1850   1.439       .  S
C1666      O1668   1.259       .  A
C1666      O1672   1.255       .  A
In1673     O1675   2.250       .  S
In1673     O1676   2.271       .  S
In1673     O1684   2.290       .  S
In1673     O1678   2.232       .  S
In1673     O1680   2.242       .  S
In1673     O1681   2.285       .  S
In1673     O1682   2.245       .  S
In1673     O1685   2.209       .  S
C1674      O1680   1.257       .  A
C1674      O1682   1.256       .  A
C1674      C1700   1.454       .  S
O1675      C1683   1.257       .  A
O1676      C1683   1.258       .  A
C1677      O1684   1.266       .  A
C1677      O1678   1.255       .  A
C1677      C1848   1.447       .  S
C1679      O1681   1.266       .  A
C1679      O1685   1.258       .  A
C1679      C1768   1.468       .  S
In1686     O1688   2.219       .  S
In1686     O1689   2.288       .  S
In1686     O1697   2.270       .  S
In1686     O1691   2.221       .  S
In1686     O1693   2.227       .  S
In1686     O1694   2.264       .  S
In1686     O1695   2.246   1_554  S
In1686     O1698   2.239       .  S
C1687      O1693   1.256       .  A
C1687      O1695   1.258   1_554  A
C1687      C1789   1.450   1_554  S
O1688      C1696   1.258       .  A
O1689      C1696   1.265       .  A
C1690      O1697   1.266       .  A
C1690      O1691   1.256       .  A
C1690      C1846   1.439       .  S
C1692      O1694   1.260       .  A
C1692      O1698   1.256       .  A
In1699     O1701   2.253       .  S
In1699     O1702   2.266       .  S
In1699     O1710   2.274       .  S
In1699     O1704   2.220       .  S
In1699     O1706   2.237       .  S
In1699     O1707   2.297       .  S
In1699     O1708   2.234       .  S
In1699     O1711   2.216       .  S
C1700      O1706   1.260       .  A
C1700      O1708   1.259       .  A
O1701      C1709   1.257       .  A
O1702      C1709   1.260       .  A
C1703      O1710   1.266       .  A
C1703      O1704   1.257       .  A
C1703      C1844   1.439       .  S
C1705      O1707   1.267       .  A
C1705      O1711   1.255       .  A
C1705      C1755   1.471       .  S
C1712      C1713   1.548       .  S
C1712      C1718   1.548       .  S
C1712      C1716   1.543       .  S
C1712      C1840   1.527       .  S
C1713      H1720   1.090       .  S
C1713      C1714   1.370       .  D
C1714      C1715   1.535       .  S
C1714      C1835   1.454       .  S
C1715      C1719   1.531       .  S
C1715      C1717   1.533       .  S
C1715      H1721   1.113       .  S
C1716      H1722   1.098       .  S
C1716      C1717   1.363       .  D
C1717      C1837   1.447       .  S
C1718      H1723   1.083       .  S
C1718      C1719   1.364       .  D
C1719      C1843   1.447       .  S
C1724      C1725   1.550       .  S
C1724      C1730   1.553       .  S
C1724      C1728   1.544       .  S
C1724      C1839   1.536       .  S
C1725      H1732   1.093       .  S
C1725      C1726   1.368       .  D
C1726      C1727   1.530       .  S
C1726      C1854   1.452       .  S
C1727      C1731   1.531       .  S
C1727      C1729   1.530       .  S
C1727      H1733   1.112       .  S
C1728      H1734   1.087       .  S
C1728      C1729   1.365       .  D
C1729      C1845   1.446       .  S
C1730      H1735   1.080       .  S
C1730      C1731   1.364       .  D
C1731      C1849   1.447       .  S
In1736     O1738   2.225       .  S
In1736     O1739   2.274       .  S
In1736     O1747   2.289       .  S
In1736     O1741   2.218       .  S
In1736     O1743   2.231       .  S
In1736     O1744   2.289       .  S
In1736     O1745   2.251       .  S
In1736     O1748   2.214       .  S
C1737      O1743   1.258       .  A
C1737      O1745   1.259       .  A
C1737      C1750   1.456       .  S
O1738      C1746   1.256       .  A
O1739      C1746   1.263       .  A
C1740      O1747   1.266       .  A
C1740      O1741   1.255       .  A
C1740      C1838   1.440       .  S
C1742      O1744   1.265       .  A
C1742      O1748   1.258       .  A
C1742      C1781   1.469       .  S
In1749     O1751   2.227       .  S
In1749     O1752   2.272       .  S
In1749     O1760   2.281       .  S
In1749     O1754   2.221       .  S
In1749     O1756   2.250       .  S
In1749     O1757   2.291       .  S
In1749     O1758   2.235       .  S
In1749     O1761   2.215       .  S
C1750      O1756   1.259       .  A
C1750      O1758   1.257       .  A
O1751      C1759   1.257       .  A
O1752      C1759   1.262       .  A
C1753      O1760   1.264       .  A
C1753      O1754   1.255       .  A
C1753      C1833   1.438       .  S
C1755      O1757   1.266       .  A
C1755      O1761   1.258       .  A
In1762     O1764   2.234       .  S
In1762     O1765   2.266       .  S
In1762     O1773   2.288       .  S
In1762     O1767   2.227       .  S
In1762     O1769   2.243       .  S
In1762     O1770   2.287       .  S
In1762     O1771   2.247       .  S
In1762     O1774   2.207       .  S
C1763      O1769   1.258       .  A
C1763      O1771   1.258       .  A
C1763      C1776   1.457       .  S
O1764      C1772   1.257       .  A
O1765      C1772   1.260       .  A
C1766      O1773   1.266       .  A
C1766      O1767   1.256       .  A
C1766      C1836   1.446       .  S
C1768      O1770   1.267       .  A
C1768      O1774   1.258       .  A
In1775     O1777   2.256       .  S
In1775     O1778   2.268       .  S
In1775     O1786   2.267       .  S
In1775     O1780   2.215       .  S
In1775     O1782   2.241       .  S
In1775     O1783   2.293       .  S
In1775     O1784   2.242       .  S
In1775     O1787   2.211       .  S
C1776      O1782   1.258       .  A
C1776      O1784   1.259       .  A
O1777      C1785   1.256       .  A
O1778      C1785   1.258       .  A
C1779      O1786   1.265       .  A
C1779      O1780   1.256       .  A
C1779      C1831   1.433       .  S
C1781      O1783   1.266       .  A
C1781      O1787   1.255       .  A
In1788     O1790   2.217       .  S
In1788     O1791   2.279       .  S
In1788     O1799   2.284       .  S
In1788     O1793   2.221       .  S
In1788     O1795   2.240       .  S
In1788     O1796   2.269       .  S
In1788     O1797   2.230       .  S
In1788     O1800   2.228       .  S
C1789      O1795   1.257       .  A
C1789      O1797   1.256       .  A
O1790      C1798   1.258       .  A
O1791      C1798   1.265       .  A
C1792      O1799   1.266       .  A
C1792      O1793   1.255       .  A
C1792      C1829   1.440       .  S
C1794      O1796   1.260       .  A
C1794      O1800   1.256       .  A
C1801      C1802   1.547       .  S
C1801      C1807   1.539       .  S
C1801      C1805   1.544       .  S
C1801      C1825   1.517       .  S
C1802      H1809   1.086       .  S
C1802      C1803   1.370       .  D
C1803      C1804   1.535       .  S
C1803      C1847   1.453       .  S
C1804      C1808   1.532       .  S
C1804      C1806   1.534       .  S
C1804      H1810   1.112       .  S
C1805      H1811   1.086       .  S
C1805      C1806   1.366       .  D
C1806      C1834   1.445       .  S
C1807      H1812   1.087       .  S
C1807      C1808   1.358       .  D
C1808      C1832   1.441       .  S
C1813      C1814   1.557       .  S
C1813      C1819   1.541       .  S
C1813      C1817   1.544       .  S
C1813      C1826   1.525       .  S
C1814      H1821   1.083       .  S
C1814      C1815   1.367       .  D
C1815      C1816   1.529       .  S
C1815      C1830   1.447       .  S
C1816      C1820   1.531       .  S
C1816      C1818   1.530       .  S
C1816      H1822   1.112       .  S
C1817      H1823   1.087       .  S
C1817      C1818   1.364       .  D
C1818      C1856   1.446       .  S
C1819      H1824   1.087       .  S
C1819      C1820   1.363       .  D
C1820      C1851   1.443       .  S
C1825      H1827   1.082       .  S
C1825      C1826   1.344       .  D
C1826      H1828   1.088       .  S
C1829      C1830   1.209       .  T
C1831      C1832   1.205       .  T
C1833      C1834   1.208       .  T
C1835      C1836   1.213       .  T
C1837      C1838   1.209       .  T
C1839      H1841   1.083       .  S
C1839      C1840   1.355       .  D
C1840      H1842   1.074       .  S
C1843      C1844   1.209       .  T
C1845      C1846   1.208       .  T
C1847      C1848   1.213       .  T
C1849      C1850   1.208       .  T
C1851      C1852   1.207       .  T
C1853      C1854   1.212       .  T
C1855      C1856   1.208       .  T
C1857      C1858   1.209       .  T
C1859      H1861   1.081       .  S
C1859      C1860   1.348       .  D
C1860      H1862   1.086       .  S
C1863      C1864   1.209       .  T
C1865      C1866   1.209       .  T
C1867      C1868   1.210       .  T
C1869      C1870   1.208       .  T
C1871      C1872   1.205       .  T
C1873      H1875   1.085       .  S
C1873      C1874   1.348       .  D
C1874      H1876   1.081       .  S
C1877      C1878   1.213       .  T
C1879      C1880   1.209       .  T
C1881      C1882   1.209       .  T
C1883      C1884   1.207       .  T
C1885      C1886   1.211       .  T
C1887      C1888   1.208       .  T
