geometry optimzed in LAMMPS
_audit_creation_date              2020-11-30 
_audit_creation_method            'lammps2cif' 
_symmetry_space_group_name_H-M    'P1' 
_symmetry_Int_Tables_number       1 
_symmetry_cell_setting            triclinic 
loop_ 
_symmetry_equiv_pos_as_xyz 
  x,y,z 
_cell_length_a                    42.56333754 
_cell_length_b                    41.813328610953036 
_cell_length_c                    54.64732687422963 
_cell_angle_alpha                 88.79347444808496 
_cell_angle_beta                  91.4473161900388 
_cell_angle_gamma                 122.63684204703787 
loop_ 
_atom_site_label 
_atom_site_type_symbol 
_atom_site_fract_x 
_atom_site_fract_y 
_atom_site_fract_z 
_atom_site_charge 
C1          C  0.00527263  0.40300166  0.75334677    -0.01000
C2          C  0.36660740  0.01239013  0.75017669    -0.01600
C3          C  0.14308816  0.16123026  0.74687967    -0.01000
O4          O  0.42862683  0.38598692  0.01739557    -0.56300
C5          C  0.36960965  0.44900110  0.99867311     0.76300
O6          O  0.32378129  0.31111492  0.00666871    -0.57500
C7          C  0.43227577  0.38010720  0.99539369     0.76300
C8          C  0.36293900  0.37243852  0.06549178     0.78600
Cd9        Cd  0.36735303  0.38005476  0.01258122     1.37500
O10         O  0.37098207  0.42827708  0.98277054    -0.56300
O11         O  0.33473209  0.35228696  0.05179866    -0.55200
C12         C  0.29751071  0.31329791  0.99728638     0.78600
O13         O  0.39289731  0.39605968  0.05468839    -0.57500
O14         O  0.36884320  0.43897611  0.02071874    -0.56000
O15         O  0.40615716  0.37430714  0.98083305    -0.56000
O16         O  0.30358016  0.34623794  0.99445135    -0.55100
O17         O  0.48774557  0.37972948  0.00286289    -0.56300
C18         C  0.09760810  0.44505437  0.99287983     0.76300
O19         O  0.05626242  0.33573087  0.98151191    -0.57500
C20         C  0.46508765  0.37978258  0.98750094     0.76300
C21         C  0.02921838  0.36437624  0.92386971     0.78600
Cd22       Cd  0.03007989  0.37575143  0.97628433     1.37500
O23         O  0.08130358  0.41516469  0.00594275    -0.56300
O24         O  0.05532137  0.39429417  0.93397836    -0.55200
C25         C  0.03122342  0.31080771  0.99520425     0.78600
O26         O  0.00340046  0.34092096  0.93778977    -0.57500
O27         O  0.08272773  0.44338957  0.97215923    -0.56000
O28         O  0.47223413  0.37942218  0.96521583    -0.56000
O29         O  0.00606567  0.31634175  0.00131168    -0.55100
O30         O  0.42998247  0.10675989  0.96975279    -0.56300
C31         C  0.36807533  0.48247650  0.99207381     0.76300
O32         O  0.30492020  0.01925306  0.99281965    -0.57500
C33         C  0.43436589  0.11523615  0.99222529     0.76300
C34         C  0.35585418  0.04657298  0.92130836     0.78600
Cd35       Cd  0.36721881  0.04756192  0.97396793     1.37500
O36         O  0.37156045  0.49462204  0.97030661    -0.56300
O37         O  0.38829176  0.06523172  0.93090612    -0.55200
C38         C  0.30381430  0.04882892  0.99066427     0.78600
O39         O  0.32922829  0.02829869  0.93601446    -0.57500
O40         O  0.36247679  0.50030042  0.00796768    -0.56000
O41         O  0.40789662  0.09286968  0.00612697    -0.56000
O42         O  0.33205139  0.07774223  0.98147487    -0.55100
O43         O  0.49316176  0.17387979  0.98767178    -0.56300
C44         C  0.09770045  0.20994698  0.00330857     0.76300
O45         O  0.00581558  0.25102511  0.01604053    -0.57500
C46         C  0.46839565  0.14928368  0.00177074     0.76300
C47         C  0.04289959  0.22105767  0.07398416     0.78600
Cd48       Cd  0.03498243  0.21302462  0.02089478     1.37500
O49         O  0.06498839  0.18849928  0.99489265    -0.56300
O50         O  0.03042301  0.18924757  0.06389100    -0.55200
C51         C  0.03164883  0.27730726  0.00339995     0.78600
O52         O  0.05232445  0.24871809  0.05957837    -0.57500
O53         O  0.10161157  0.23236234  0.01997335    -0.56000
O54         O  0.47440716  0.15551080  0.02452172    -0.56000
O55         O  0.05804046  0.27327270  0.99804960    -0.55100
O56         O  0.12559931  0.18574623  0.97814586    -0.56300
C57         C  0.19640818  0.14609956  0.98983034     0.76300
O58         O  0.22365095  0.23222979  0.93343905    -0.57500
C59         C  0.12961654  0.20948491  0.99391908     0.76300
C60         C  0.26193099  0.27927298  0.98993721     0.78600
Cd61       Cd  0.19360754  0.21173101  0.97394440     1.37500
O62         O  0.18807963  0.16350090  0.00431590    -0.56300
O63         O  0.25523283  0.24638634  0.99430995    -0.55200
C64         C  0.19415855  0.22091762  0.92092655     0.78600
O65         O  0.23660369  0.28126086  0.97879321    -0.57500
O66         O  0.20176054  0.15764300  0.96784898    -0.56000
O67         O  0.16270486  0.23335483  0.00093619    -0.56000
O68         O  0.16421127  0.20486142  0.93284878    -0.55100
O69         O  0.19204082  0.10093035  0.01963656    -0.56300
C70         C  0.13213935  0.47980289  0.00142258     0.76300
O71         O  0.27150300  0.07997585  0.99753109    -0.57500
C72         C  0.20022303  0.11452209  0.99814979     0.76300
C73         C  0.21776157  0.05672224  0.06738384     0.78600
Cd74       Cd  0.20816828  0.05223337  0.01446228     1.37500
O75         O  0.15693330  0.01366588  0.98391842    -0.56300
O76         O  0.24344455  0.08096180  0.05359638    -0.55200
C77         C  0.27147539  0.04974369  0.99834558     0.78600
O78         O  0.18796446  0.03177001  0.05669465    -0.57500
O79         O  0.14452385  0.48269519  0.02305646    -0.56000
O80         O  0.21228727  0.09979409  0.98424699    -0.56000
O81         O  0.24213312  0.02042628  0.00605100    -0.55100
C82         C  0.40494964  0.40451421  0.24334275    -0.01000
C83         C  0.03326583  0.19353873  0.25187880    -0.01000
C84         C  0.16767029  0.05408371  0.24194756    -0.01000
O85         O  0.40490588  0.40366087  0.50016054    -0.56300
C86         C  0.34731695  0.44745302  0.49247592     0.76300
O87         O  0.32554713  0.34906012  0.43488688    -0.57500
C88         C  0.41645527  0.38639071  0.48838752     0.76300
C89         C  0.28082038  0.31476541  0.49228754     0.78600
Cd90       Cd  0.34766615  0.38242035  0.47436733     1.37500
O91         O  0.35330562  0.42670607  0.50637696    -0.56300
O92         O  0.27920344  0.33727075  0.47732125    -0.55200
C93         C  0.34564797  0.37784195  0.42151010     0.78600
O94         O  0.31302021  0.32386338  0.49954939    -0.57500
O95         O  0.34139554  0.43848483  0.47009486    -0.56000
O96         O  0.39710300  0.36819898  0.46987536    -0.56000
O97         O  0.36647430  0.40903596  0.43256764    -0.55100
O98         O  0.05196149  0.42560138  0.48810856    -0.56300
C99         C  0.44959841  0.38601588  0.49636651     0.76300
O100        O  0.04061077  0.33849413  0.51435648    -0.57500
C101        C  0.07961800  0.44455689  0.50243415     0.76300
C102        C  0.00614868  0.37012469  0.57161765     0.78600
Cd103      Cd  0.01142225  0.37600415  0.51871377     1.37500
O104        O  0.46747114  0.40192489  0.51586736    -0.56300
O105        O  0.02979932  0.40072492  0.56082707    -0.55200
C106        C  0.01346688  0.31076836  0.50334954     0.78600
O107        O  0.98428041  0.34250728  0.55793451    -0.57500
O108        O  0.46086187  0.36846903  0.48456380    -0.56000
O109        O  0.07567972  0.43255896  0.52428109    -0.56000
O110        O  0.98555975  0.31318726  0.49888072    -0.55100
O111        O  0.12297558  0.20904747  0.52576488    -0.56300
C112        C  0.18186159  0.14545129  0.50118302     0.76300
O113        O  0.21528757  0.26785155  0.49136114    -0.57500
C114        C  0.11375946  0.20792151  0.50344831     0.76300
C115        C  0.18443016  0.21442514  0.57125270     0.78600
Cd116      Cd  0.18126053  0.21084008  0.51845720     1.37500
O117        O  0.21008090  0.17344800  0.51126535    -0.56300
O118        O  0.17390543  0.18394769  0.56002163    -0.55200
C119        C  0.24715416  0.27979033  0.50075915     0.78600
O120        O  0.19179741  0.24279843  0.55806219    -0.57500
O121        O  0.15313229  0.14713291  0.49918496    -0.56000
O122        O  0.13514689  0.20739397  0.48799294    -0.56000
O123        O  0.24864770  0.25988182  0.51784077    -0.55100
O124        O  0.12272822  0.98805224  0.46729684    -0.56300
C125        C  0.18258045  0.11291643  0.49207199     0.76300
O126        O  0.21468026  0.01843908  0.49337583    -0.57500
C127        C  0.11460269  0.47861655  0.49416207     0.76300
C128        C  0.19513115  0.05457402  0.42051520     0.78600
Cd129      Cd  0.18420141  0.04897903  0.47344569     1.37500
O130        O  0.20896959  0.10825967  0.49744952    -0.56300
O131        O  0.18877591  0.07673993  0.43158739    -0.55200
C132        C  0.24786644  0.04648067  0.49137159     0.78600
O133        O  0.19536119  0.02952600  0.43371202    -0.57500
O134        O  0.15696316  0.08826021  0.47826381    -0.56000
O135        O  0.14314756  0.49562000  0.50803087    -0.56000
O136        O  0.25194553  0.07636040  0.48191584    -0.55100
O137        O  0.06103676  0.21230747  0.51109292    -0.56300
C138        C  0.44749054  0.14305923  0.49460246     0.76300
O139        O  0.98711547  0.24971911  0.48524047    -0.57500
C140        C  0.08042823  0.20817408  0.49586144     0.76300
C141        C  0.02408427  0.22471548  0.42793650     0.78600
Cd142      Cd  0.01681119  0.21278383  0.48049569     1.37500
O143        O  0.47362680  0.16374525  0.50956302    -0.56300
O144        O  0.00138266  0.19272805  0.43760847    -0.55200
C145        C  0.01437939  0.27759643  0.49612768     0.78600
O146        O  0.04418642  0.25152738  0.44264987    -0.57500
O147        O  0.45206804  0.15473985  0.47268471    -0.56000
O148        O  0.07007128  0.20509499  0.47369601    -0.56000
O149        O  0.04247821  0.27540918  0.50043116    -0.55100
O150        O  0.35617484  0.49085651  0.52390750    -0.56300
C151        C  0.41316209  0.10765271  0.50213398     0.76300
O152        O  0.31307829  0.07245890  0.49835776    -0.57500
C153        C  0.34703253  0.48004844  0.50196357     0.76300
C154        C  0.33124893  0.03121097  0.56886068     0.78600
Cd155      Cd  0.34320203  0.03973758  0.51638136     1.37500
O156        O  0.38758850  0.08723734  0.48677184    -0.56300
O157        O  0.34784324  0.06364646  0.55866423    -0.55200
C158        C  0.27990950  0.04422009  0.49948553     0.78600
O159        O  0.31980791  0.00333187  0.55475878    -0.57500
O160        O  0.40726294  0.09631638  0.52418471    -0.56000
O161        O  0.33738754  0.49857772  0.48868914    -0.56000
O162        O  0.27577027  0.01378894  0.50786449    -0.55100
C163        C  0.20263770  0.08334822  0.35318255    -0.26700
C164        C  0.21105603  0.05864595  0.34242191     0.06900
C165        C  0.21654834  0.03452470  0.35765830     0.26500
C166        C  0.21196499  0.03392466  0.38298910    -0.11200
C167        C  0.20189649  0.05739852  0.39372672    -0.25200
C168        C  0.19808507  0.08283097  0.37854826     0.37300
C169        C  0.20903630  0.05493073  0.31532685     0.06900
F170        F  0.22574043  0.01106144  0.34797628    -0.19000
H171        H  0.21575010  0.01453194  0.39418564     0.16700
F172        F  0.13736968  0.49632725  0.39240144    -0.22700
H173        H  0.19793361  0.10192842  0.34176460     0.18500
C174        C  0.18274544  0.02004891  0.30453564     0.26500
C175        C  0.17332293  0.01855835  0.27975302    -0.11200
C176        C  0.18799523  0.05221616  0.26558260    -0.25200
C177        C  0.22032441  0.08508905  0.27501965     0.37400
C178        C  0.22956956  0.08686922  0.30004592    -0.26900
F179        F  0.16317367  0.98807646  0.31839898    -0.19000
H180        H  0.15185943  0.99130024  0.27249970     0.16700
F181        F  0.23908711  0.11719251  0.26119413    -0.22700
H182        H  0.25116040  0.11374420  0.30778154     0.18500
C183        C  0.00920691  0.23288536  0.30626674    -0.26700
C184        C  0.03871908  0.24156962  0.32263915     0.06900
C185        C  0.07075961  0.24460871  0.31357437     0.26500
C186        C  0.07105448  0.23406570  0.28953532    -0.11200
C187        C  0.03847228  0.21773430  0.27458740    -0.25200
C188        C  0.00949797  0.22215301  0.28214409     0.37300
C189        C  0.03328786  0.23998828  0.34946548     0.06900
F190        F  0.10014794  0.25352755  0.32868372    -0.19000
H191        H  0.09589331  0.23563875  0.28360386     0.16700
F192        F  0.49112666  0.21539455  0.26321380    -0.22700
H193        H  0.49026501  0.23359981  0.30789390     0.18500
C194        C  0.05862947  0.26960094  0.36504260     0.26500
C195        C  0.05519846  0.26484366  0.39055494    -0.11200
C196        C  0.02683299  0.23029710  0.40093649    -0.25200
C197        C  0.00125812  0.20100125  0.38519838     0.37400
C198        C  0.00438827  0.20602441  0.35982909    -0.26900
F199        F  0.08684535  0.30286249  0.35559764    -0.19000
H200        H  0.07519963  0.28793883  0.40218330     0.16700
F201        F  0.97349247  0.16710672  0.39422504    -0.22700
H202        H  0.98497188  0.18261673  0.34816664     0.18500
C203        C  0.12572710  0.11360505  0.22410472    -0.26700
C204        C  0.12987545  0.13336023  0.24557122     0.06900
C205        C  0.14968368  0.13028355  0.26546258     0.26500
C206        C  0.16287187  0.10618349  0.26435653    -0.11200
C207        C  0.15862009  0.08568896  0.24289403    -0.25200
C208        C  0.14009473  0.09065362  0.22258047     0.37300
C209        C  0.10996808  0.15342534  0.24788493     0.06900
F210        F  0.15528533  0.14957686  0.28647152    -0.19000
H211        H  0.17409810  0.10230424  0.28119898     0.16700
F212        F  0.13401285  0.07161426  0.20139613    -0.22700
H213        H  0.10961805  0.11426890  0.20868451     0.18500
C214        C  0.10719413  0.17398250  0.22822074     0.26500
C215        C  0.08351122  0.18741053  0.22940082    -0.11200
C216        C  0.06393560  0.18367892  0.25096535    -0.25200
C217        C  0.06824564  0.16391179  0.27095407     0.37400
C218        C  0.09022603  0.14870635  0.26917186    -0.26900
F219        F  0.12653010  0.18023036  0.20740348    -0.19000
H220        H  0.07942078  0.19860219  0.21257513     0.16700
F221        F  0.04974994  0.15745344  0.29214492    -0.22700
H222        H  0.09041240  0.13172555  0.28433317     0.18500
C223        C  0.33961293  0.35460069  0.29884980    -0.26700
C224        C  0.36541309  0.37337956  0.31811898     0.06900
C225        C  0.40342250  0.39567249  0.31292129     0.26500
C226        C  0.41517447  0.40203286  0.28889876    -0.11200
C227        C  0.38964867  0.38639151  0.26888350    -0.25200
C228        C  0.35144404  0.36094824  0.27435110     0.37300
C229        C  0.35367358  0.37278095  0.34352329     0.06900
F230        F  0.42929398  0.41317541  0.33114384    -0.19000
H231        H  0.44467295  0.42172977  0.28580053     0.16700
F232        F  0.32507755  0.34456996  0.25638683    -0.22700
H233        H  0.31011042  0.33680062  0.30265970     0.18500
C234        C  0.36497030  0.40728480  0.35500039     0.26500
C235        C  0.36124196  0.40845651  0.38020769    -0.11200
C236        C  0.34549112  0.37519134  0.39447354    -0.25200
C237        C  0.33148323  0.34014096  0.38268655     0.37400
C238        C  0.33578365  0.33908288  0.35738260    -0.26900
F239        F  0.38107476  0.44020269  0.34188108    -0.19000
H240        H  0.37150495  0.43564956  0.38866305     0.16700
F241        F  0.31553058  0.30717708  0.39572652    -0.22700
H242        H  0.32689082  0.31226505  0.34885268     0.18500
C243        C  0.07278393  0.47847608  0.27405153    -0.26700
C244        C  0.05129686  0.46472065  0.25251991     0.06900
C245        C  0.07591155  0.96682852  0.21503283     0.26500
C246        C  0.11357955  0.99611763  0.21752916    -0.11200
C247        C  0.12770651  0.01741410  0.23939548    -0.25200
C248        C  0.10200877  0.00763493  0.25857532     0.37300
C249        C  0.00998481  0.44492126  0.25395102     0.06900
F250        F  0.06320314  0.94851645  0.19334388    -0.19000
H251        H  0.13048342  0.00339335  0.20149824     0.16700
F252        F  0.11230755  0.02794685  0.27955965    -0.22700
H253        H  0.05966381  0.47079505  0.29176013     0.18500
C254        C  0.48608452  0.38838569  0.24733243     0.26500
C255        C  0.45002210  0.38052593  0.25002194    -0.11200
C256        C  0.43780404  0.40058467  0.23579843    -0.25200
C257        C  0.45814766  0.41928790  0.21435560     0.37400
C258        C  0.49366308  0.42621835  0.21136707    -0.26900
F259        F  0.99835778  0.39793557  0.22437573    -0.19000
H260        H  0.43348731  0.36155389  0.26469638     0.16700
F261        F  0.44687230  0.43672522  0.19854689    -0.22700
H262        H  0.00968303  0.96320960  0.19842300     0.18500
C263        C  0.40577005  0.00942082  0.25592980    -0.26700
C264        C  0.44404351  0.03626224  0.25481401     0.06900
C265        C  0.46901930  0.02440315  0.25394202     0.26500
C266        C  0.45775892  0.47591267  0.24812782    -0.11200
C267        C  0.41925716  0.44715841  0.24758897    -0.25200
C268        C  0.39402270  0.45793763  0.25392344     0.37300
C269        C  0.45902172  0.07689129  0.25271905     0.06900
F270        F  0.50647196  0.05008486  0.25458673    -0.19000
H271        H  0.47923348  0.46981005  0.24672153     0.16700
F272        F  0.35700994  0.43152273  0.25602547    -0.22700
H273        H  0.38633822  0.01842736  0.25741180     0.18500
C274        C  0.96451118  0.09134976  0.23158639     0.26500
C275        C  0.98898666  0.13043164  0.23126976    -0.11200
C276        C  0.99711222  0.15270066  0.25249584    -0.25200
C277        C  0.48923372  0.13730568  0.27355532     0.37400
C278        C  0.46400321  0.09795092  0.27356514    -0.26900
F279        F  0.96033080  0.07143304  0.21112421    -0.19000
H280        H  0.00429644  0.14299655  0.21459528     0.16700
F281        F  0.49576773  0.15483130  0.29534710    -0.22700
H282        H  0.45092120  0.08350663  0.29053022     0.18500
C283        C  0.19765752  0.02820084  0.13430332    -0.26700
C284        C  0.22564323  0.06111009  0.14634453     0.06900
C285        C  0.25333506  0.09134835  0.13211015     0.26500
C286        C  0.25127193  0.08950895  0.10644695    -0.11200
C287        C  0.22185832  0.05742782  0.09448874    -0.25200
C288        C  0.19580251  0.02620988  0.10876932     0.37300
C289        C  0.22255132  0.06444151  0.17322303     0.06900
F290        F  0.24478491  0.52463556  0.14987092    -0.19000
H291        H  0.23710916  0.52456382  0.10251345     0.16700
F292        F  0.16800526  0.99382901  0.09810979    -0.22700
H293        H  0.17602071  0.00440250  0.14466822     0.18500
C294        C  0.22390879  0.09618233  0.18269661     0.26500
C295        C  0.21056586  0.09462193  0.20606479    -0.11200
C296        C  0.19323020  0.06061259  0.22002539    -0.25200
C297        C  0.19865820  0.03182971  0.21243852     0.37400
C298        C  0.21222123  0.03335895  0.18900865    -0.26900
F299        F  0.23433014  0.12736243  0.16860387    -0.19000
H300        H  0.21137237  0.11945859  0.21221339     0.16700
F301        F  0.18651409  0.00008629  0.22632256    -0.22700
H302        H  0.21234274  0.00909406  0.18259176     0.18500
C303        C  0.03224661  0.19898061  0.14223853    -0.26700
C304        C  0.04350333  0.23440530  0.15223718     0.06900
C305        C  0.05753731  0.26609427  0.13656363     0.26500
C306        C  0.05825355  0.26174809  0.11119094    -0.11200
C307        C  0.04538298  0.22585097  0.10104596    -0.25200
C308        C  0.03324382  0.19463873  0.11701887     0.37300
C309        C  0.03892843  0.23654065  0.17893182     0.06900
F310        F  0.06902590  0.30079419  0.14560655    -0.19000
H311        H  0.06808026  0.28640526  0.09941230     0.16700
F312        F  0.02147594  0.15966248  0.10833211    -0.22700
H313        H  0.02205445  0.17432030  0.15409106     0.18500
C314        C  0.00377009  0.21230451  0.18923518     0.26500
C315        C  0.00084395  0.20352148  0.21418570    -0.11200
C316        C  0.03328182  0.21640923  0.22884296    -0.25200
C317        C  0.06671058  0.24846285  0.21994011     0.37400
C318        C  0.06984984  0.25742226  0.19474846    -0.26900
F319        F  0.48106214  0.19940670  0.17751308    -0.19000
H320        H  0.48608898  0.18664776  0.22258681     0.16700
F321        F  0.09789696  0.26614550  0.23434850    -0.22700
H322        H  0.09703639  0.27774624  0.18736157     0.18500
C323        C  0.35740558  0.34311945  0.18716194    -0.26700
C324        C  0.35749988  0.36978599  0.17113622     0.06900
C325        C  0.36168689  0.40258453  0.18073665     0.26500
C326        C  0.37091615  0.41127714  0.20537578    -0.11200
C327        C  0.37699798  0.38768152  0.22120037    -0.25200
C328        C  0.36616802  0.35148596  0.21212888     0.37300
C329        C  0.35896012  0.36687668  0.14431696     0.06900
F330        F  0.36075963  0.42833770  0.16567868    -0.19000
H331        H  0.37782800  0.43906780  0.21048682     0.16700
F332        F  0.36966859  0.32667335  0.22650768    -0.22700
H333        H  0.35349878  0.31721264  0.18003606     0.18500
C334        C  0.39270679  0.39106958  0.13222089     0.26500
C335        C  0.39378768  0.39204827  0.10668467    -0.11200
C336        C  0.36124463  0.36908298  0.09261902    -0.25200
C337        C  0.32758343  0.34399213  0.10482369     0.37400
C338        C  0.32658822  0.34297068  0.13049621    -0.26900
F339        F  0.42454232  0.41444018  0.14516736    -0.19000
H340        H  0.42011747  0.41140798  0.09791534     0.16700
F341        F  0.29545192  0.32112823  0.09205262    -0.22700
H342        H  0.30034773  0.32439859  0.13957986     0.18500
C343        C  0.19195376  0.19074603  0.63763322    -0.26700
C344        C  0.19370469  0.22082900  0.64987543     0.06900
C345        C  0.19451946  0.25003777  0.63605685     0.26500
C346        C  0.19201874  0.24811597  0.61046320    -0.11200
C347        C  0.18838786  0.21695379  0.59826755    -0.25200
C348        C  0.18912548  0.18861621  0.61213663     0.37300
C349        C  0.18804091  0.21739484  0.67665725     0.06900
F350        F  0.19675138  0.27984573  0.64733058    -0.19000
H351        H  0.19199426  0.27056159  0.60021921     0.16700
F352        F  0.18663179  0.15850648  0.60114619    -0.22700
H353        H  0.19082807  0.16773036  0.64793477     0.18500
C354        C  0.15650244  0.21509896  0.68588486     0.26500
C355        C  0.14415059  0.20032184  0.70919420    -0.11200
C356        C  0.16176359  0.18559065  0.72358736    -0.25200
C357        C  0.19739311  0.19509193  0.71614015     0.37400
C358        C  0.20964462  0.20943614  0.69243628    -0.26900
F359        F  0.13525895  0.22339135  0.67153255    -0.19000
H360        H  0.11931364  0.19870034  0.71515968     0.16700
F361        F  0.21819536  0.18628750  0.73052949    -0.22700
H362        H  0.23480891  0.21219352  0.68588625     0.18500
C363        C  0.16243571  0.21550975  0.85465250    -0.26700
C364        C  0.19538398  0.22711142  0.84214903     0.06900
C365        C  0.22860663  0.24022296  0.85563660     0.26500
C366        C  0.22828230  0.23954682  0.88126402    -0.11200
C367        C  0.19478513  0.22552777  0.89387721    -0.25200
C368        C  0.16199329  0.21463497  0.88025360     0.37300
C369        C  0.19302314  0.21933698  0.81563922     0.06900
F370        F  0.26104607  0.25238584  0.84400421    -0.19000
H371        H  0.25406920  0.24871170  0.89122602     0.16700
F372        F  0.12917988  0.20184665  0.89155620    -0.22700
H373        H  0.13649388  0.20507241  0.84454576     0.18500
C374        C  0.19975196  0.19199976  0.80757712     0.26500
C375        C  0.18736946  0.17619848  0.78441992    -0.11200
C376        C  0.16653901  0.18611761  0.76909528    -0.25200
C377        C  0.16697149  0.21902969  0.77538727     0.37400
C378        C  0.17855725  0.23431521  0.79892537    -0.26900
F379        F  0.21497394  0.17778987  0.82293285    -0.19000
H380        H  0.19220054  0.15435368  0.77937379     0.16700
F381        F  0.15166441  0.23321363  0.76011607    -0.22700
H382        H  0.17432731  0.25638325  0.80457128     0.18500
C383        C  0.31156318  0.98597743  0.63217089    -0.26700
C384        C  0.32635743  0.01780562  0.64726313     0.06900
C385        C  0.33978319  0.05366446  0.63658506     0.26500
C386        C  0.33993157  0.05774034  0.61105360    -0.11200
C387        C  0.32663669  0.02608977  0.59579937    -0.25200
C388        C  0.31131717  0.98987775  0.60670896     0.37300
C389        C  0.33364741  0.01430561  0.67345109     0.06900
F390        F  0.35506647  0.08502154  0.65079228    -0.19000
H391        H  0.35178179  0.08589598  0.60322055     0.16700
F392        F  0.30757827  0.46558254  0.59893003    -0.22700
H393        H  0.30547378  0.46652389  0.64609197     0.18500
C394        C  0.31518235  0.01980800  0.69225158     0.26500
C395        C  0.32429614  0.01781517  0.71692015    -0.11200
C396        C  0.35286239  0.01135203  0.72329062    -0.25200
C397        C  0.37106674  0.00588186  0.70376442     0.37400
C398        C  0.36111596  0.00683089  0.67947318    -0.26900
F399        F  0.28849234  0.02727558  0.68672895    -0.19000
H400        H  0.30949044  0.02234874  0.73080679     0.16700
F401        F  0.39800692  0.51758046  0.71378829    -0.22700
H402        H  0.37592224  0.00297453  0.66515948     0.18500
C403        C  0.30435537  0.50627061  0.81177838    -0.26700
C404        C  0.32967618  0.03248487  0.81644080     0.06900
C405        C  0.34778635  0.06232194  0.79930673     0.26500
C406        C  0.35354096  0.05483776  0.77555007    -0.11200
C407        C  0.34318248  0.01777155  0.76908553    -0.25200
C408        C  0.31076272  0.50108480  0.78758286     0.37300
C409        C  0.33509262  0.03984996  0.84321069     0.06900
F410        F  0.36303626  0.09889495  0.80618772    -0.19000
H411        H  0.37071713  0.07868193  0.76349894     0.16700
F412        F  0.29203712  0.46529785  0.77856627    -0.22700
H413        H  0.28647919  0.48146199  0.82293378     0.18500
C414        C  0.29934412  0.52699797  0.86539629     0.26500
C415        C  0.31249335  0.02256781  0.88488223    -0.11200
C416        C  0.34901906  0.04563223  0.89443845    -0.25200
C417        C  0.37843986  0.06682446  0.87804466     0.37400
C418        C  0.37143412  0.06391604  0.85276711    -0.26900
F419        F  0.26370218  0.50694905  0.85662398    -0.19000
H420        H  0.28228998  0.51211043  0.90274102     0.16700
F421        F  0.41414808  0.08957403  0.88630032    -0.22700
H422        H  0.39484057  0.07924277  0.84058268     0.18500
C423        C  0.46791125  0.08116982  0.77547473    -0.26700
C424        C  0.48697140  0.09934388  0.75403305     0.06900
C425        C  0.46622443  0.09719154  0.73316599     0.26500
C426        C  0.42758294  0.07248187  0.73274129    -0.11200
C427        C  0.40846609  0.04727269  0.75260721    -0.25200
C428        C  0.42907797  0.05716110  0.77512091     0.37300
C429        C  0.02287863  0.11580976  0.74896002     0.06900
F430        F  0.48344608  0.11817274  0.71286204    -0.19000
H431        H  0.41340753  0.07325936  0.71633292     0.16700
F432        F  0.41223489  0.04705403  0.79710527    -0.22700
H433        H  0.48298431  0.08474182  0.79249968     0.18500
C434        C  0.04641266  0.13936530  0.76791300     0.26500
C435        C  0.08474785  0.15456672  0.76743895    -0.11200
C436        C  0.10121383  0.14856886  0.74733828    -0.25200
C437        C  0.07703096  0.12573573  0.72795618     0.37400
C438        C  0.03869991  0.10960787  0.72892752    -0.26900
F439        F  0.03231248  0.14719953  0.78724431    -0.19000
H440        H  0.10056611  0.16932401  0.78360259     0.16700
F441        F  0.09042894  0.11772557  0.70829420    -0.22700
H442        H  0.02115908  0.09088142  0.71432119     0.18500
C443        C  0.45907223  0.34144205  0.63047558    -0.26700
C444        C  0.00073681  0.36552046  0.65031158     0.06900
C445        C  0.03310549  0.39370911  0.63833682     0.26500
C446        C  0.03474125  0.39462761  0.61283512    -0.11200
C447        C  0.00447653  0.36700866  0.59872116    -0.25200
C448        C  0.46272468  0.34244900  0.60503890     0.37300
C449        C  0.99604890  0.37034437  0.67645394     0.06900
F450        F  0.06262943  0.42131785  0.65138022    -0.19000
H451        H  0.05959874  0.41738768  0.60409946     0.16700
F452        F  0.43198649  0.31957036  0.59105119    -0.22700
H453        H  0.43193915  0.32266470  0.63845917     0.18500
C454        C  0.47337833  0.39137787  0.67953219     0.26500
C455        C  0.47373687  0.39846371  0.70432869    -0.11200
C456        C  0.99822273  0.38762903  0.72668590    -0.25200
C457        C  0.99223173  0.35222940  0.71962613     0.37400
C458        C  0.99174014  0.34409426  0.69465519    -0.26900
F459        F  0.46432717  0.40985577  0.66290562    -0.19000
H460        H  0.46772999  0.41964053  0.70895438     0.16700
F461        F  0.98708629  0.32547287  0.73632417    -0.22700
H462        H  0.98908417  0.31783991  0.68956112     0.18500
C463        C  0.03358306  0.35409882  0.80119079    -0.26700
C464        C  0.00875734  0.34685102  0.82005092     0.06900
C465        C  0.47455687  0.34538716  0.80999205     0.26500
C466        C  0.46793042  0.35550225  0.78692662    -0.11200
C467        C  0.00040623  0.37385310  0.77370332    -0.25200
C468        C  0.02892489  0.36633236  0.77802166     0.37300
C469        C  0.01906514  0.34617809  0.84608560     0.06900
F470        F  0.44804223  0.33394510  0.82725526    -0.19000
H471        H  0.44120272  0.35204299  0.78465091     0.16700
F472        F  0.05532152  0.37582787  0.76097911    -0.22700
H473        H  0.05803156  0.35287792  0.80491257     0.18500
C474        C  0.99379315  0.31747488  0.86209395     0.26500
C475        C  0.99835186  0.32293084  0.88741618    -0.11200
C476        C  0.02810421  0.35710690  0.89726494    -0.25200
C477        C  0.05519982  0.38438032  0.88126609     0.37400
C478        C  0.05062345  0.37882389  0.85592048    -0.26900
F479        F  0.96337970  0.28525519  0.85317566    -0.19000
H480        H  0.97752281  0.30101483  0.89926806     0.16700
F481        F  0.08490790  0.41740112  0.88989609    -0.22700
H482        H  0.56676408  0.41061164  0.84065137     0.18500
C483        C  0.44586119  0.45233930  0.76640866    -0.26700
C484        C  0.40833341  0.42364216  0.76364322     0.06900
C485        C  0.39897518  0.38793635  0.75562204     0.26500
C486        C  0.42721505  0.38121020  0.75115513    -0.11200
C487        C  0.46569044  0.40967535  0.75476979    -0.25200
C488        C  0.47403598  0.44623507  0.76164991     0.37300
C489        C  0.38084945  0.43448327  0.76620257     0.06900
F490        F  0.36272894  0.35966067  0.75212940    -0.19000
H491        H  0.41904665  0.35331966  0.74483584     0.16700
F492        F  0.50873145  0.47775835  0.76262285    -0.22700
H493        H  0.45368953  0.48080383  0.77118209     0.18500
C494        C  0.38356360  0.45615381  0.78628133     0.26500
C495        C  0.37958959  0.96970090  0.77846434    -0.11200
C496        C  0.36027373  0.48788699  0.76081605    -0.25200
C497        C  0.34619072  0.45688150  0.74424696     0.37400
C498        C  0.35858233  0.43199143  0.74618471    -0.26900
F499        F  0.40872196  0.94372919  0.80160763    -0.19000
H500        H  0.38278714  0.98575350  0.79432166     0.16700
F501        F  0.32105189  0.45037740  0.72614757    -0.22700
H502        H  0.35301013  0.41286980  0.73126952     0.18500
C503        C  0.09297809  0.49177521  0.78101677    -0.26700
C504        C  0.09826986  0.00123374  0.75163874     0.06900
C505        C  0.09887100  0.49399247  0.73726918     0.26500
C506        C  0.07005257  0.45587801  0.73626822    -0.11200
C507        C  0.04630583  0.43800325  0.75638905    -0.25200
C508        C  0.06072507  0.45532978  0.77951591     0.37300
C509        C  0.11712132  0.04382657  0.75215587     0.06900
F510        F  0.09944242  0.99810565  0.70741679    -0.19000
H511        H  0.06479735  0.44236230  0.71876657     0.16700
F512        F  0.04171445  0.43923674  0.80042852    -0.22700
H513        H  0.09649255  0.99269607  0.79105805     0.18500
C514        C  0.10889900  0.06110588  0.77070432     0.26500
C515        C  0.12120793  0.09928377  0.76921065    -0.11200
C516        C  0.13932338  0.12186512  0.74835451    -0.25200
C517        C  0.14781239  0.10465614  0.72975104     0.37400
C518        C  0.13890663  0.06720240  0.73254498    -0.26900
F519        F  0.08605170  0.04102331  0.78950386    -0.19000
H520        H  0.11359393  0.11072947  0.78388419     0.16700
F521        F  0.16133081  0.12160313  0.70781512    -0.22700
H522        H  0.14778239  0.05631604  0.71839154     0.18500
C523        C  0.99823814  0.88689203  0.74909093    -0.01000
C524        C  0.36244249  0.52623214  0.75497142    -0.01600
C525        C  0.15632680  0.67395521  0.75254801    -0.01000
O526        O  0.42386231  0.86995056  0.01846877    -0.56300
C527        C  0.37568443  0.95123021  0.99745768     0.76300
O528        O  0.33199719  0.81534283  0.00646723    -0.57500
C529        C  0.43742170  0.88154623  0.99745456     0.76300
C530        C  0.36784427  0.88178051  0.06744293     0.78600
Cd531      Cd  0.37390785  0.88405864  0.01464570     1.37500
O532        O  0.36626656  0.92358578  0.98351027    -0.56300
O533        O  0.34074466  0.85956097  0.05359643    -0.55200
C534        C  0.30384866  0.81666853  0.00039397     0.78600
O535        O  0.39797733  0.90562547  0.05685266    -0.57500
O536        O  0.38607622  0.94889660  0.01896796    -0.56000
O537        O  0.42213349  0.89467374  0.98413999    -0.56000
O538        O  0.30831197  0.84908832  0.00005099    -0.55100
O539        O  0.48385879  0.86615550  0.00265979    -0.56300
C540        C  0.10475724  0.94957605  0.98905858     0.76300
O541        O  0.06264281  0.83921108  0.97780574    -0.57500
C542        C  0.46915316  0.87964306  0.98911407     0.76300
C543        C  0.03342681  0.86702718  0.92111215     0.78600
Cd544      Cd  0.03649972  0.87998257  0.97322833     1.37500
O545        O  0.08952645  0.91940939  0.00178824    -0.56300
O546        O  0.05594494  0.89948947  0.93014213    -0.55200
C547        C  0.03746637  0.81471239  0.99168301     0.78600
O548        O  0.01223338  0.84123334  0.93611742    -0.57500
O549        O  0.08853644  0.94815531  0.96900384    -0.56000
O550        O  0.48316929  0.89121431  0.96814905    -0.56000
O551        O  0.01248382  0.82066780  0.99752223    -0.55100
O552        O  0.42382388  0.61022037  0.97566269    -0.56300
C553        C  0.37360177  0.98384561  0.98932304     0.76300
O554        O  0.29963412  0.51885059  0.99609675    -0.57500
C555        C  0.43275602  0.61438933  0.99815794     0.76300
C556        C  0.34948412  0.54777614  0.92734280     0.78600
Cd557      Cd  0.36339841  0.54811046  0.97973502     1.37500
O558        O  0.36445523  0.98697630  0.96765835    -0.56300
O559        O  0.38214010  0.56378397  0.93650849    -0.55200
C560        C  0.30002876  0.54927120  0.99710448     0.78600
O561        O  0.32309958  0.53130747  0.94238827    -0.57500
O562        O  0.37996225  0.00985952  0.00381808    -0.56000
O563        O  0.40977327  0.58832942  0.01234559    -0.56000
O564        O  0.33016884  0.57949011  0.99123332    -0.55100
O565        O  0.48915633  0.67512314  0.99307350    -0.56300
C566        C  0.10104843  0.71400260  0.00648596     0.76300
O567        O  0.01256968  0.75771672  0.01528649    -0.57500
C568        C  0.46790694  0.64791586  0.00721839     0.76300
C569        C  0.03683050  0.72138752  0.07316564     0.78600
Cd570      Cd  0.03570869  0.71489582  0.02025215     1.37500
O571        O  0.06813851  0.68587447  0.00292223    -0.56300
O572        O  0.05520777  0.70982305  0.06291696    -0.55200
C573        C  0.03709109  0.78106268  0.00066674     0.78600
O574        O  0.01837730  0.72979907  0.05904295    -0.57500
O575        O  0.10412803  0.74268116  0.01642588    -0.56000
O576        O  0.47848326  0.65123522  0.02941853    -0.56000
O577        O  0.06100427  0.77381729  0.99433636    -0.55100
O578        O  0.13063800  0.68490690  0.98893163    -0.56300
C579        C  0.19917236  0.64855414  0.99527146     0.76300
O580        O  0.22676164  0.73408327  0.93905183    -0.57500
C581        C  0.13387593  0.71366848  0.99879174     0.76300
C582        C  0.26783407  0.78235991  0.99404238     0.78600
Cd583      Cd  0.19792126  0.71494581  0.97950821     1.37500
O584        O  0.19889836  0.67077484  0.01054892    -0.56300
O585        O  0.26272532  0.74968392  0.99574273    -0.55200
C586        C  0.19718676  0.72256006  0.92663924     0.78600
O587        O  0.24035686  0.78396529  0.98654571    -0.57500
O588        O  0.19804736  0.65634249  0.97290695    -0.56000
O589        O  0.16673449  0.74238876  0.00107246    -0.56000
O590        O  0.16733737  0.70662175  0.93861921    -0.55100
O591        O  0.20114844  0.60719011  0.02539645    -0.56300
C592        C  0.13950289  0.98427550  0.99728128     0.76300
O593        O  0.26703066  0.57952899  0.00555957    -0.57500
C594        C  0.20053098  0.61529551  0.00305426     0.76300
C595        C  0.20414711  0.55030353  0.07168927     0.78600
Cd596      Cd  0.20080610  0.54820412  0.01878340     1.37500
O597        O  0.15114962  0.50829267  0.98760100    -0.56300
O598        O  0.22818993  0.54901491  0.05935917    -0.55200
C599        C  0.26689811  0.54927536  0.00429126     0.78600
O600        O  0.17829154  0.55014928  0.05959974    -0.57500
O601        O  0.15361972  0.98616002  0.01822687    -0.56000
O602        O  0.20097228  0.59317358  0.98779803    -0.56000
O603        O  0.23647394  0.51879128  0.00919605    -0.55100
C604        C  0.40201853  0.91586634  0.24548952    -0.01000
C605        C  0.02235586  0.67691659  0.25205366    -0.01000
C606        C  0.17043403  0.55249241  0.24969600    -0.01000
O607        O  0.40325988  0.88972813  0.50570574    -0.56300
C608        C  0.35101961  0.94466472  0.49106022     0.76300
O609        O  0.32843678  0.84377756  0.43669120    -0.57500
C610        C  0.42060004  0.88181396  0.49102853     0.76300
C611        C  0.28473890  0.81044433  0.49649965     0.78600
Cd612      Cd  0.35114264  0.87752849  0.47646378     1.37500
O613        O  0.36758585  0.93220664  0.50374826    -0.56300
O614        O  0.28647034  0.84113099  0.49231112    -0.55200
C615        C  0.34430307  0.87329986  0.42333460     0.78600
O616        O  0.31392818  0.81071732  0.49239301    -0.57500
O617        O  0.33534730  0.92698623  0.47151391    -0.56000
O618        O  0.40703071  0.87337571  0.46955662    -0.56000
O619        O  0.36363959  0.90460271  0.43443282    -0.55100
O620        O  0.05874548  0.92005495  0.48353309    -0.56300
C621        C  0.45400040  0.88123825  0.49867717     0.76300
O622        O  0.04452285  0.83893305  0.51025204    -0.57500
C623        C  0.08037135  0.94634146  0.49811563     0.76300
C624        C  0.00237478  0.86073894  0.56747537     0.78600
Cd625      Cd  0.01437300  0.87550528  0.51511725     1.37500
O626        O  0.46843034  0.89102466  0.51990249    -0.56300
O627        O  0.03453352  0.87625293  0.55843990    -0.55200
C628        C  0.01663794  0.81021498  0.50045625     0.78600
O629        O  0.97601585  0.85185597  0.55236026    -0.57500
O630        O  0.46919747  0.86991545  0.48459325    -0.56000
O631        O  0.07126590  0.94064577  0.52038056    -0.56000
O632        O  0.98788830  0.81157365  0.49714917    -0.55100
O633        O  0.12266763  0.70710380  0.52718672    -0.56300
C634        C  0.17920821  0.64252505  0.50334273     0.76300
O635        O  0.22060660  0.77565127  0.50759364    -0.57500
C636        C  0.11404400  0.70531707  0.50474130     0.76300
C637        C  0.19238450  0.71427141  0.57405900     0.78600
Cd638      Cd  0.18174301  0.70872944  0.52128271     1.37500
O639        O  0.18725754  0.67048872  0.48952012    -0.56300
O640        O  0.17471898  0.68249532  0.56338589    -0.55200
C641        C  0.25035503  0.77621470  0.50514195     0.78600
O642        O  0.20462565  0.74330147  0.56041455    -0.57500
O643        O  0.17142042  0.64453254  0.52521550    -0.56000
O644        O  0.13558591  0.70373681  0.49006839    -0.56000
O645        O  0.24871019  0.74567147  0.51010226    -0.55100
O646        O  0.11781789  0.49237420  0.47283892    -0.56300
C647        C  0.17973953  0.60979932  0.49464334     0.76300
O648        O  0.21859960  0.51567271  0.48779615    -0.57500
C649        C  0.11469911  0.98126584  0.48972798     0.76300
C650        C  0.19476091  0.54814804  0.42589185     0.78600
Cd651      Cd  0.18366639  0.54625272  0.47832706     1.37500
O652        O  0.18680049  0.60722864  0.47271720    -0.56300
O653        O  0.16290387  0.52757278  0.43535391    -0.55200
C654        C  0.24714094  0.54485950  0.49671844     0.78600
O655        O  0.22143232  0.56837982  0.44062359    -0.57500
O656        O  0.17388620  0.58302219  0.50886675    -0.56000
O657        O  0.13815443  0.00577345  0.50462408    -0.56000
O658        O  0.24607205  0.57441933  0.49790312    -0.55100
O659        O  0.06148259  0.71078485  0.51044036    -0.56300
C660        C  0.45101834  0.64183170  0.49696982     0.76300
O661        O  0.98909159  0.74778239  0.48434115    -0.57500
C662        C  0.08146288  0.70621660  0.49603250     0.76300
C663        C  0.02087099  0.72206619  0.42537225     0.78600
Cd664      Cd  0.01913408  0.71176420  0.47827980     1.37500
O665        O  0.47675305  0.66385461  0.51176517    -0.56300
O666        O  0.99936570  0.69040654  0.43578574    -0.55200
C667        C  0.01755051  0.77704078  0.49325422     0.78600
O668        O  0.04247990  0.74930848  0.43941917    -0.57500
O669        O  0.45705213  0.65036514  0.47452307    -0.56000
O670        O  0.07251515  0.70350069  0.47360019    -0.56000
O671        O  0.04676410  0.77623705  0.49559424    -0.55100
O672        O  0.36537414  0.99525203  0.51830018    -0.56300
C673        C  0.41562453  0.60838696  0.50527028     0.76300
O674        O  0.30947199  0.57412605  0.51246956    -0.57500
C675        C  0.34931680  0.97738080  0.49889169     0.76300
C676        C  0.33153888  0.53538370  0.57341719     0.78600
Cd677      Cd  0.34454428  0.54312925  0.52108177     1.37500
O678        O  0.38774526  0.59084184  0.49095030    -0.56300
O679        O  0.35013961  0.56773759  0.56322239    -0.55200
C680        C  0.27998549  0.54449315  0.50497000     0.78600
O681        O  0.31942992  0.50715666  0.55949258    -0.57500
O682        O  0.41120218  0.59584395  0.52700928    -0.56000
O683        O  0.33115208  0.98868792  0.48692107    -0.56000
O684        O  0.28035746  0.51451742  0.50466754    -0.55100
C685        C  0.17696234  0.52383701  0.35834277    -0.26700
C686        C  0.21174778  0.55026836  0.34800383     0.06900
C687        C  0.24108483  0.57595890  0.36365058     0.26500
C688        C  0.23549576  0.57496857  0.38894047    -0.11200
C689        C  0.20057974  0.54856387  0.39914533    -0.25200
C690        C  0.17142628  0.52271592  0.38350305     0.37300
C691        C  0.21524972  0.55204015  0.32080980     0.06900
F692        F  0.27519862  0.60179443  0.35461483    -0.19000
H693        H  0.25851535  0.59513562  0.40053966     0.16700
F694        F  0.18873812  0.10630897  0.38801211    -0.22700
H695        H  0.15344453  0.50439469  0.34679736     0.18500
C696        C  0.19731479  0.51840161  0.30711843     0.26500
C697        C  0.18761494  0.51910892  0.28260617    -0.11200
C698        C  0.19487202  0.55328886  0.27160920    -0.25200
C699        C  0.22242343  0.58735773  0.28306300     0.37400
C700        C  0.23089899  0.58680466  0.30800995    -0.26900
F701        F  0.18571553  0.48440381  0.31804909    -0.19000
H702        H  0.17010281  0.49221618  0.27349475     0.16700
F703        F  0.23667321  0.62132963  0.27142982    -0.22700
H704        H  0.24670529  0.61350357  0.31760546     0.18500
C705        C  0.99820382  0.72173785  0.30338554    -0.26700
C706        C  0.02835948  0.73318407  0.31979918     0.06900
C707        C  0.06053440  0.73602320  0.31123526     0.26500
C708        C  0.06000040  0.72150833  0.28836457    -0.11200
C709        C  0.02697369  0.70273703  0.27375365    -0.25200
C710        C  0.99821669  0.70825075  0.28003874     0.37300
C711        C  0.02350260  0.73381043  0.34657874     0.06900
F712        F  0.09114714  0.74893645  0.32596171    -0.19000
H713        H  0.08505755  0.72301519  0.28305741     0.16700
F714        F  0.47168707  0.69121491  0.26694836    -0.22700
H715        H  0.47121816  0.71054782  0.31151567     0.18500
C716        C  0.04929106  0.76455163  0.36129657     0.26500
C717        C  0.04776046  0.76103585  0.38692690    -0.11200
C718        C  0.02078707  0.72671989  0.39829903    -0.25200
C719        C  0.99416190  0.69661851  0.38344524     0.37400
C720        C  0.99551737  0.70032172  0.35796178    -0.26900
F721        F  0.07639047  0.79758596  0.35090260    -0.19000
H722        H  0.06834873  0.78483637  0.39785413     0.16700
F723        F  0.96731065  0.66306266  0.39342477    -0.22700
H724        H  0.97569481  0.67609858  0.34700723     0.18500
C725        C  0.12836370  0.61119360  0.22994756    -0.26700
C726        C  0.12863303  0.62839599  0.25168959     0.06900
C727        C  0.14615473  0.62419199  0.27252829     0.26500
C728        C  0.16071602  0.60120887  0.27187238    -0.11200
C729        C  0.16115241  0.58397060  0.24994240    -0.25200
C730        C  0.14450151  0.58990879  0.22886003     0.37300
C731        C  0.10646939  0.64620933  0.25295517     0.06900
F732        F  0.14800794  0.64108240  0.29392895    -0.19000
H733        H  0.16962647  0.59565000  0.28917741     0.16700
F734        F  0.14137931  0.57319883  0.20716505    -0.22700
H735        H  0.11368758  0.61228125  0.21380647     0.18500
C736        C  0.10452751  0.66697343  0.23305264     0.26500
C737        C  0.07820060  0.67712093  0.23247615    -0.11200
C738        C  0.05475629  0.66962908  0.25256182    -0.25200
C739        C  0.05839801  0.65024455  0.27300725     0.37400
C740        C  0.08325565  0.63830193  0.27291861    -0.26900
F741        F  0.12728175  0.67649334  0.21360992    -0.19000
H742        H  0.07565968  0.68912167  0.21551897     0.16700
F743        F  0.03630585  0.64094637  0.29278428    -0.22700
H744        H  0.08288068  0.62116457  0.28816492     0.18500
C745        C  0.33205880  0.86348664  0.29885395    -0.26700
C746        C  0.35659228  0.87943045  0.31905122     0.06900
C747        C  0.39479288  0.90333924  0.31506394     0.26500
C748        C  0.40829910  0.91209647  0.29144134    -0.11200
C749        C  0.38438126  0.89758513  0.27058662    -0.25200
C750        C  0.34561033  0.87258376  0.27474970     0.37300
C751        C  0.34363815  0.87326568  0.34458963     0.06900
F752        F  0.41916114  0.91940464  0.33420961    -0.19000
H753        H  0.43800465  0.93200671  0.28938341     0.16700
F754        F  0.32040773  0.85892972  0.25598013    -0.22700
H755        H  0.30232575  0.84516216  0.30174364     0.18500
C756        C  0.34602542  0.90338516  0.35732356     0.26500
C757        C  0.34488083  0.90257541  0.38290358    -0.11200
C758        C  0.34096912  0.87157636  0.39624303    -0.25200
C759        C  0.33602199  0.84025905  0.38338249     0.37400
C760        C  0.33761215  0.84130685  0.35774028    -0.26900
F761        F  0.35203942  0.93473295  0.34504669    -0.19000
H762        H  0.34825971  0.92679139  0.39234818     0.16700
F763        F  0.33267011  0.81000206  0.39560649    -0.22700
H764        H  0.33662523  0.81828092  0.34825874     0.18500
C765        C  0.06491942  0.97807937  0.25613826    -0.26700
C766        C  0.05124785  0.95780971  0.23433563     0.06900
C767        C  0.06976127  0.47492454  0.23000134     0.26500
C768        C  0.10865236  0.49919816  0.22929897    -0.11200
C769        C  0.13023117  0.51621016  0.25082196    -0.25200
C770        C  0.11080739  0.50542743  0.27327626     0.37300
C771        C  0.01028241  0.93331223  0.23092865     0.06900
F772        F  0.05026705  0.46465123  0.20849150    -0.19000
H773        H  0.12104852  0.50717234  0.21144268     0.16700
F774        F  0.12762101  0.52306557  0.29460999    -0.22700
H775        H  0.04611132  0.97278130  0.27090195     0.18500
C776        C  0.48182739  0.89763249  0.25260809     0.26500
C777        C  0.44600602  0.89092096  0.25435998    -0.11200
C778        C  0.43501699  0.91124483  0.23928698    -0.25200
C779        C  0.45703614  0.93009017  0.21841501     0.37400
C780        C  0.49244346  0.93615880  0.21648093    -0.26900
F781        F  0.00340698  0.89526793  0.26626910    -0.19000
H782        H  0.42843615  0.87217766  0.26878891     0.16700
F783        F  0.44714726  0.94801258  0.20196356    -0.22700
H784        H  0.01221700  0.47890552  0.28415151     0.18500
C785        C  0.40639623  0.49620404  0.25678883    -0.26700
C786        C  0.44418015  0.52425126  0.25431660     0.06900
C787        C  0.46990243  0.51379887  0.25093706     0.26500
C788        C  0.45580838  0.98623628  0.25178492    -0.11200
C789        C  0.41710388  0.95864110  0.24956675    -0.25200
C790        C  0.39235354  0.97077051  0.25406936     0.37300
C791        C  0.45753933  0.56473515  0.25348488     0.06900
F792        F  0.50703016  0.54057802  0.24998375    -0.19000
H793        H  0.47659102  0.97897727  0.25212672     0.16700
F794        F  0.35495933  0.94538755  0.25498118    -0.22700
H795        H  0.38640039  0.50400817  0.26008688     0.18500
C796        C  0.95515873  0.57257652  0.23399806     0.26500
C797        C  0.98264333  0.61103884  0.23390642    -0.11200
C798        C  0.98717759  0.63534964  0.25322806    -0.25200
C799        C  0.48381107  0.62402250  0.27533143     0.37400
C800        C  0.46173362  0.58429228  0.27494631    -0.26900
F801        F  0.95507695  0.55086217  0.21582716    -0.19000
H802        H  0.00183689  0.62191011  0.21879602     0.16700
F803        F  0.48971027  0.64047118  0.29748427    -0.22700
H804        H  0.45030500  0.56871079  0.29189124     0.18500
C805        C  0.19341744  0.57099048  0.13701709    -0.26700
C806        C  0.21184082  0.55650627  0.15033679     0.06900
C807        C  0.22719246  0.53933738  0.13760665     0.26500
C808        C  0.22484881  0.53764693  0.11198942    -0.11200
C809        C  0.20637203  0.55214519  0.09872280    -0.25200
C810        C  0.19051166  0.56873734  0.11152216     0.37300
C811        C  0.21260541  0.55783922  0.17747100     0.06900
F812        F  0.28223146  0.12277602  0.14292643    -0.19000
H813        H  0.27222737  0.11360062  0.09593035     0.16700
F814        F  0.17282020  0.58348217  0.09941524    -0.22700
H815        H  0.18066301  0.58360707  0.14646241     0.18500
C816        C  0.22274842  0.59158757  0.18942115     0.26500
C817        C  0.21356063  0.59057472  0.21388718    -0.11200
C818        C  0.19193019  0.55554105  0.22639804    -0.25200
C819        C  0.18905344  0.52338969  0.21592689     0.37400
C820        C  0.19843365  0.52438617  0.19141574    -0.26900
F821        F  0.23910539  0.62508937  0.17694428    -0.19000
H822        H  0.22009350  0.61682704  0.22214274     0.16700
F823        F  0.17336689  0.48991414  0.22830899    -0.22700
H824        H  0.19171761  0.49824887  0.18285864     0.18500
C825        C  0.06058274  0.72541636  0.14103390    -0.26700
C826        C  0.03078492  0.72545568  0.15156439     0.06900
C827        C  0.00454325  0.72662954  0.13603253     0.26500
C828        C  0.00725703  0.72610286  0.11061511    -0.11200
C829        C  0.03607551  0.72433318  0.10009658    -0.25200
C830        C  0.06325166  0.72479183  0.11556335     0.37300
C831        C  0.02543673  0.72025658  0.17849247     0.06900
F832        F  0.97601525  0.72790341  0.14540827    -0.19000
H833        H  0.98616846  0.72617513  0.09914043     0.16700
F834        F  0.09227029  0.72445339  0.10613196    -0.22700
H835        H  0.08110203  0.72442751  0.15259426     0.18500
C836        C  0.99147341  0.69057439  0.18790335     0.26500
C837        C  0.98893088  0.68036544  0.21254476    -0.11200
C838        C  0.02098134  0.69704804  0.22802139    -0.25200
C839        C  0.05262627  0.73147321  0.21973456     0.37400
C840        C  0.05523547  0.74209616  0.19493723    -0.26900
F841        F  0.47018504  0.69041384  0.17882774    -0.19000
H842        H  0.47425523  0.67261495  0.22343035     0.16700
F843        F  0.08303224  0.75165202  0.23456601    -0.22700
H844        H  0.08128146  0.76610097  0.18829432     0.18500
C845        C  0.35586980  0.85449478  0.18893049    -0.26700
C846        C  0.35640059  0.88109206  0.17262148     0.06900
C847        C  0.36074169  0.91412962  0.18186130     0.26500
C848        C  0.37027117  0.92338046  0.20638220    -0.11200
C849        C  0.37550406  0.89961544  0.22262271    -0.25200
C850        C  0.36436472  0.86316490  0.21387686     0.37300
C851        C  0.35923683  0.87838607  0.14595663     0.06900
F852        F  0.35993407  0.93966159  0.16650609    -0.19000
H853        H  0.37778405  0.95150231  0.21106518     0.16700
F854        F  0.36715810  0.83824905  0.22862597    -0.22700
H855        H  0.35191291  0.82843301  0.18205843     0.18500
C856        C  0.39341437  0.90337968  0.13453199     0.26500
C857        C  0.39598835  0.90408042  0.10909014    -0.11200
C858        C  0.36454212  0.87992766  0.09448177    -0.25200
C859        C  0.33036089  0.85436730  0.10603406     0.37400
C860        C  0.32787621  0.85363988  0.13160667    -0.26900
F861        F  0.42426516  0.92756718  0.14806531    -0.19000
H862        H  0.42263444  0.92385418  0.10081503     0.16700
F863        F  0.29915750  0.83057896  0.09269188    -0.22700
H864        H  0.30130074  0.83451248  0.14016833     0.18500
C865        C  0.19800190  0.69009207  0.64080828    -0.26700
C866        C  0.20252549  0.72182541  0.65267128     0.06900
C867        C  0.20658706  0.75221489  0.63846821     0.26500
C868        C  0.20463233  0.75012759  0.61288073    -0.11200
C869        C  0.19791600  0.71744153  0.60100943    -0.25200
C870        C  0.19550825  0.68773064  0.61522124     0.37300
C871        C  0.19698028  0.72004360  0.67947320     0.06900
F872        F  0.21119592  0.78335467  0.64939615    -0.19000
H873        H  0.20688907  0.77351894  0.60237579     0.16700
F874        F  0.19024833  0.65619865  0.60444229    -0.22700
H875        H  0.19453308  0.66626151  0.65144696     0.18500
C876        C  0.16570089  0.71868483  0.68832556     0.26500
C877        C  0.15495365  0.70792645  0.71251171    -0.11200
C878        C  0.17389018  0.69611555  0.72823993    -0.25200
C879        C  0.20941521  0.70530206  0.72066126     0.37400
C880        C  0.21993522  0.71535616  0.69610719    -0.26900
F881        F  0.14363905  0.72466069  0.67306533    -0.19000
H882        H  0.13035892  0.70700647  0.71820154     0.16700
F883        F  0.23164569  0.69971641  0.73599018    -0.22700
H884        H  0.24507462  0.71778564  0.68982799     0.18500
C885        C  0.16668245  0.71544967  0.85990388    -0.26700
C886        C  0.20123810  0.73387047  0.84817884     0.06900
C887        C  0.23415097  0.75033061  0.86232592     0.26500
C888        C  0.23249975  0.74732614  0.88782501    -0.11200
C889        C  0.19796007  0.72752968  0.89968764    -0.25200
C890        C  0.16490951  0.71216504  0.88546502     0.37300
C891        C  0.20213621  0.72884858  0.82163096     0.06900
F892        F  0.26781790  0.76787058  0.85137152    -0.19000
H893        H  0.25838310  0.75966101  0.89826334     0.16700
F894        F  0.13092305  0.69261857  0.89607494    -0.22700
H895        H  0.14099774  0.70180149  0.84915763     0.18500
C896        C  0.20992806  0.70230033  0.81367061     0.26500
C897        C  0.20073440  0.68883804  0.78984417    -0.11200
C898        C  0.18123762  0.69975530  0.77401494    -0.25200
C899        C  0.18211460  0.73293408  0.78022022     0.37400
C900        C  0.19070426  0.74611751  0.80442216    -0.26900
F901        F  0.22257355  0.68627481  0.82967620    -0.19000
H902        H  0.20569230  0.66704883  0.78487010     0.16700
F903        F  0.16850499  0.74821739  0.76440103    -0.22700
H904        H  0.18606908  0.76789216  0.81009614     0.18500
C905        C  0.31164591  0.49277356  0.63736747    -0.26700
C906        C  0.31998045  0.52395879  0.65168970     0.06900
C907        C  0.32877529  0.55800711  0.64003659     0.26500
C908        C  0.33141844  0.56136327  0.61446021    -0.11200
C909        C  0.32497063  0.53068018  0.60016701    -0.25200
C910        C  0.31387011  0.49590320  0.61188745     0.37300
C911        C  0.32796800  0.52328488  0.67811933     0.06900
F912        F  0.33760527  0.58879797  0.65348091    -0.19000
H913        H  0.33969481  0.58834106  0.60589898     0.16700
F914        F  0.29766930  0.95835567  0.59284673    -0.22700
H915        H  0.30151973  0.95820408  0.64014880     0.18500
C916        C  0.30811238  0.52757708  0.69659481     0.26500
C917        C  0.31817005  0.52799861  0.72142245    -0.11200
C918        C  0.34854538  0.52458196  0.72811962    -0.25200
C919        C  0.36810561  0.52041878  0.70891879     0.37400
C920        C  0.35770403  0.51954924  0.68461269    -0.26900
F921        F  0.27893688  0.53103497  0.69063404    -0.19000
H922        H  0.30233414  0.53130765  0.73517891     0.16700
F923        F  0.39981760  0.00103605  0.70822355    -0.22700
H924        H  0.37359939  0.51666879  0.67061560     0.18500
C925        C  0.31146576  0.99501129  0.80801960    -0.26700
C926        C  0.32446289  0.54255424  0.82222170     0.06900
C927        C  0.34549642  0.57407177  0.80669853     0.26500
C928        C  0.35226310  0.56877983  0.78267095    -0.11200
C929        C  0.33939833  0.53198335  0.77406344    -0.25200
C930        C  0.31709970  0.98762062  0.78425396     0.37300
C931        C  0.32943671  0.54669112  0.84930246     0.06900
F932        F  0.36260166  0.60991260  0.81550090    -0.19000
H933        H  0.37141627  0.59366198  0.77198651     0.16700
F934        F  0.29980686  0.95089548  0.77715842    -0.22700
H935        H  0.29571563  0.97126559  0.82043088     0.18500
C936        C  0.30555309  0.01951892  0.85958493     0.26500
C937        C  0.30590378  0.52784178  0.89076981    -0.11200
C938        C  0.34253594  0.54819963  0.90055646    -0.25200
C939        C  0.37242587  0.56867705  0.88442220     0.37400
C940        C  0.36586245  0.56772768  0.85920654    -0.26900
F941        F  0.27004010  0.99622925  0.85113809    -0.19000
H942        H  0.28921589  0.00612584  0.89701039     0.16700
F943        F  0.40821699  0.58923202  0.89287894    -0.22700
H944        H  0.38964483  0.58251118  0.84727309     0.18500
C945        C  0.46640175  0.59433447  0.77683976    -0.26700
C946        C  0.48318663  0.61487113  0.75538645     0.06900
C947        C  0.46013955  0.61326714  0.73612209     0.26500
C948        C  0.42158868  0.58791648  0.73717526    -0.11200
C949        C  0.40464339  0.56105983  0.75666772    -0.25200
C950        C  0.42764337  0.56942648  0.77796487     0.37300
C951        C  0.03747902  0.63452627  0.75780767     0.06900
F952        F  0.47491068  0.63595755  0.71607161    -0.19000
H953        H  0.40549463  0.58933705  0.72209304     0.16700
F954        F  0.41329869  0.55732815  0.80049335    -0.22700
H955        H  0.48326431  0.59723704  0.79282933     0.18500
C956        C  0.06249576  0.65697729  0.77648058     0.26500
C957        C  0.10033449  0.67015717  0.77496804    -0.11200
C958        C  0.11481759  0.66259450  0.75430965    -0.25200
C959        C  0.08866004  0.63855915  0.73613931     0.37400
C960        C  0.05092996  0.62516827  0.73786195    -0.26900
F961        F  0.05044402  0.66603520  0.79636785    -0.19000
H962        H  0.11721036  0.68443991  0.79088583     0.16700
F963        F  0.09957275  0.62715169  0.71680739    -0.22700
H964        H  0.03188761  0.60651697  0.72372433     0.18500
C965        C  0.46064579  0.82724207  0.62875110    -0.26700
C966        C  0.98703192  0.84850579  0.64551228     0.06900
C967        C  0.02069139  0.85677734  0.63545976     0.26500
C968        C  0.02514400  0.85960489  0.61004020    -0.11200
C969        C  0.99609133  0.85415400  0.59421223    -0.25200
C970        C  0.46567602  0.83161004  0.60345492     0.37300
C971        C  0.98485235  0.85351757  0.67200513     0.06900
F972        F  0.05008139  0.86468537  0.65026217    -0.19000
H973        H  0.05177385  0.86719091  0.60276837     0.16700
F974        F  0.43549314  0.82101839  0.58874619    -0.22700
H975        H  0.43307636  0.81612822  0.63592340     0.18500
C976        C  0.47702604  0.86876038  0.67812619     0.26500
C977        C  0.47786160  0.87734737  0.70265510    -0.11200
C978        C  0.99002137  0.87096775  0.72253814    -0.25200
C979        C  0.99049277  0.83902704  0.71490064     0.37400
C980        C  0.98859597  0.83098988  0.68980677    -0.26900
F981        F  0.46925097  0.88760098  0.66095587    -0.19000
H982        H  0.47336926  0.89983862  0.70649744     0.16700
F983        F  0.99376375  0.81600707  0.73111478    -0.22700
H984        H  0.99062988  0.80748211  0.68420944     0.18500
C985        C  0.03611823  0.84982191  0.79873008    -0.26700
C986        C  0.01069756  0.84129090  0.81745255     0.06900
C987        C  0.46694614  0.82389573  0.80979231     0.26500
C988        C  0.46229393  0.83310036  0.78587321    -0.11200
C989        C  0.99678896  0.85912203  0.76953837    -0.25200
C990        C  0.02870879  0.85724158  0.77475437     0.37300
C991        C  0.02183807  0.84492773  0.84366748     0.06900
F992        F  0.43975817  0.81442855  0.82622505    -0.19000
H993        H  0.43622358  0.83058470  0.78227513     0.16700
F994        F  0.05546841  0.86828733  0.75773644    -0.22700
H995        H  0.06280494  0.85338795  0.80302499     0.18500
C996        C  0.99957291  0.81589610  0.86049195     0.26500
C997        C  0.00436359  0.82305492  0.88562432    -0.11200
C998        C  0.03133580  0.85932808  0.89452260    -0.25200
C999        C  0.05504239  0.88781748  0.87770221     0.37400
C1000       C  0.05030294  0.88052660  0.85252848    -0.26900
F1001       F  0.97187638  0.78116640  0.85251874    -0.19000
H1002       H  0.98596886  0.80043015  0.89809040     0.16700
F1003       F  0.08174287  0.92315231  0.88540482    -0.22700
H1004       H  0.54873234  0.89568123  0.83934650     0.18500
C1005       C  0.44985341  0.93579321  0.76039535    -0.26700
C1006       C  0.41188835  0.90811841  0.75847452     0.06900
C1007       C  0.40077378  0.87135703  0.75158866     0.26500
C1008       C  0.42772085  0.86240590  0.74803740    -0.11200
C1009       C  0.46647545  0.88945691  0.75189177    -0.25200
C1010       C  0.47667464  0.92742888  0.75648971     0.37300
C1011       C  0.38579388  0.92078391  0.76112203     0.06900
F1012       F  0.36407895  0.84413736  0.74850059    -0.19000
H1013       H  0.41828759  0.83380771  0.74250422     0.16700
F1014       F  0.51185017  0.95816106  0.75527467    -0.22700
H1015       H  0.45906900  0.96508973  0.76380055     0.18500
C1016       C  0.39051914  0.94384332  0.78086278     0.26500
C1017       C  0.37227391  0.48175439  0.78374645    -0.11200
C1018       C  0.36531647  0.97450024  0.75602151    -0.25200
C1019       C  0.35024425  0.94293402  0.73988667     0.37400
C1020       C  0.36242214  0.91778682  0.74165214    -0.26900
F1021       F  0.40026700  0.45507802  0.80750061    -0.19000
H1022       H  0.37306191  0.49644393  0.79981924     0.16700
F1023       F  0.32435001  0.93622534  0.72231636    -0.22700
H1024       H  0.35559612  0.89785065  0.72703350     0.18500
C1025       C  0.08536927  0.97969880  0.77343702    -0.26700
C1026       C  0.10883643  0.51371020  0.75966935     0.06900
C1027       C  0.08698073  0.98089462  0.72946621     0.26500
C1028       C  0.05938711  0.94225512  0.72931733    -0.11200
C1029       C  0.03833509  0.92386972  0.75046013    -0.25200
C1030       C  0.05434595  0.94238811  0.77306077     0.37300
C1031       C  0.12913193  0.55637001  0.76042884     0.06900
F1032       F  0.11370616  0.51152503  0.71563653    -0.19000
H1033       H  0.05279603  0.92850913  0.71180770     0.16700
F1034       F  0.03763239  0.92650737  0.79466976    -0.22700
H1035       H  0.10284271  0.50397131  0.79896734     0.18500
C1036       C  0.12041140  0.57432465  0.77818198     0.26500
C1037       C  0.13330978  0.61257847  0.77603450    -0.11200
C1038       C  0.15180437  0.63426340  0.75493956    -0.25200
C1039       C  0.16130567  0.61643877  0.73739841     0.37400
C1040       C  0.15254940  0.57927821  0.74128324    -0.26900
F1041       F  0.09656648  0.55493178  0.79667814    -0.19000
H1042       H  0.12572471  0.62469861  0.79027700     0.16700
F1043       F  0.17614156  0.63241668  0.71551562    -0.22700
H1044       H  0.16252810  0.56805621  0.72810992     0.18500
C1045       C  0.49583555  0.40016714  0.74874654    -0.01000
C1046       C  0.86022897  0.00879776  0.75199035    -0.01600
C1047       C  0.64565607  0.15266952  0.75037219    -0.01000
O1048       O  0.93560893  0.40282326  0.01451255    -0.56300
C1049       C  0.86802388  0.44488088  0.00134775     0.76300
O1050       O  0.81580888  0.30872207  0.02024258    -0.57500
C1051       C  0.93321751  0.38027234  0.99839318     0.76300
C1052       C  0.86203346  0.36700187  0.06918939     0.78600
Cd1053     Cd  0.86702239  0.37671624  0.01640749     1.37500
O1054       O  0.86942198  0.42347796  0.98603013    -0.56300
O1055       O  0.84069929  0.37374992  0.05677871    -0.55200
C1056       C  0.79723601  0.30865199  0.00184846     0.78600
O1057       O  0.88664148  0.36598999  0.05727206    -0.57500
O1058       O  0.86733572  0.43578259  0.02362937    -0.56000
O1059       O  0.90075742  0.35685797  0.99010768    -0.56000
O1060       O  0.81121626  0.33936778  0.98981141    -0.55100
O1061       O  0.99734029  0.39878566  0.00132294    -0.56300
C1062       C  0.59740516  0.44685757  0.98982415     0.76300
O1063       O  0.56246629  0.34580562  0.98744290    -0.57500
C1064       C  0.96614646  0.38028562  0.99029594     0.76300
C1065       C  0.52876295  0.36788039  0.92049344     0.78600
Cd1066     Cd  0.52997653  0.37763027  0.97302693     1.37500
O1067       O  0.56960130  0.42778993  0.00353330    -0.56300
O1068       O  0.54529657  0.40061271  0.92994346    -0.55200
C1069       C  0.53316532  0.31411544  0.99204604     0.78600
O1070       O  0.51220631  0.34008645  0.93522316    -0.57500
O1071       O  0.59383073  0.43484384  0.96825620    -0.56000
O1072       O  0.96452185  0.36082572  0.97237726    -0.56000
O1073       O  0.50263279  0.31196522  0.98855349    -0.55100
O1074       O  0.92669686  0.10123613  0.97283818    -0.56300
C1075       C  0.86679483  0.47825431  0.99364903     0.76300
O1076       O  0.80242598  0.01597097  0.99878431    -0.57500
C1077       C  0.93181894  0.11070979  0.99515378     0.76300
C1078       C  0.85116199  0.04203956  0.92534708     0.78600
Cd1079     Cd  0.86338629  0.04318759  0.97794335     1.37500
O1080       O  0.87023412  0.48904168  0.97153901    -0.56300
O1081       O  0.88238888  0.06554227  0.93533016    -0.55200
C1082       C  0.80035924  0.04488006  0.99578166     0.78600
O1083       O  0.82567085  0.01902094  0.93966955    -0.57500
O1084       O  0.86182913  0.49749977  0.00877507    -0.56000
O1085       O  0.90566382  0.08909986  0.00950981    -0.56000
O1086       O  0.82773321  0.07327690  0.98552171    -0.55100
O1087       O  0.99019133  0.16934208  0.98925871    -0.56300
C1088       C  0.59721484  0.21290561  0.00368510     0.76300
O1089       O  0.50472977  0.24982758  0.00528952    -0.57500
C1090       C  0.96630784  0.14514235  0.00394639     0.76300
C1091       C  0.54047846  0.22593924  0.07360309     0.78600
Cd1092     Cd  0.53508224  0.21688672  0.02051963     1.37500
O1093       O  0.56550469  0.18330717  0.00758401    -0.56300
O1094       O  0.55759794  0.21368836  0.06253141    -0.55200
C1095       C  0.53431603  0.28142992  0.00101843     0.78600
O1096       O  0.51992481  0.23261592  0.06031975    -0.57500
O1097       O  0.60030446  0.24431532  0.00723643    -0.56000
O1098       O  0.97363160  0.15220500  0.02653923    -0.56000
O1099       O  0.56468039  0.28329430  0.00493020    -0.55100
O1100       O  0.62510149  0.18003771  0.98938496    -0.56300
C1101       C  0.69246119  0.14106793  0.99408738     0.76300
O1102       O  0.72090690  0.21997462  0.93836296    -0.57500
C1103       C  0.62888200  0.21097125  0.99549823     0.76300
C1104       C  0.76137508  0.27477368  0.99466481     0.78600
Cd1105     Cd  0.69182837  0.20815242  0.97857682     1.37500
O1106       O  0.68765554  0.16061282  0.00911486    -0.56300
O1107       O  0.74598753  0.24440379  0.00722180    -0.55200
C1108       C  0.69270547  0.21294444  0.92561015     0.78600
O1109       O  0.74429731  0.27460231  0.97540541    -0.57500
O1110       O  0.69557012  0.15139049  0.97189382    -0.56000
O1111       O  0.66144389  0.24027675  0.99421220    -0.56000
O1112       O  0.66336004  0.20260256  0.93734081    -0.55100
O1113       O  0.68955957  0.09661894  0.02392132    -0.56300
C1114       C  0.63230642  0.48076425  0.99859039     0.76300
O1115       O  0.76614920  0.07465646  0.00113695    -0.57500
C1116       C  0.69516824  0.10862706  0.00204324     0.76300
C1117       C  0.71229297  0.04499808  0.07105572     0.78600
Cd1118     Cd  0.70233281  0.04545638  0.01807743     1.37500
O1119       O  0.66337510  0.99646298  0.98657518    -0.56300
O1120       O  0.73335881  0.07412827  0.05813516    -0.55200
C1121       C  0.76761904  0.04530216  0.00336865     0.78600
O1122       O  0.68676006  0.01644317  0.05951397    -0.57500
O1123       O  0.63541081  0.49383896  0.01980137    -0.56000
O1124       O  0.70395563  0.09169517  0.98747195    -0.56000
O1125       O  0.73915587  0.01611320  0.01211864    -0.55100
C1126       C  0.88954814  0.40256565  0.25082407    -0.01000
C1127       C  0.54637605  0.19689470  0.25200475    -0.01000
C1128       C  0.66385451  0.03942381  0.24599998    -0.01000
O1129       O  0.88817411  0.37130157  0.50776256    -0.56300
C1130       C  0.85003362  0.44457963  0.49275121     0.76300
O1131       O  0.83023405  0.33795408  0.43945780    -0.57500
C1132       C  0.91533682  0.38156005  0.49377738     0.76300
C1133       C  0.77931709  0.31136425  0.49609876     0.78600
Cd1134     Cd  0.84739607  0.37681220  0.47702206     1.37500
O1135       O  0.86827705  0.43274398  0.50395065    -0.56300
O1136       O  0.78049253  0.34081686  0.48871025    -0.55200
C1137       C  0.84209375  0.36525360  0.42436201     0.78600
O1138       O  0.80946051  0.31235535  0.49529848    -0.57500
O1139       O  0.83137164  0.42590395  0.47415659    -0.56000
O1140       O  0.91198105  0.39094605  0.47215470    -0.56000
O1141       O  0.85680308  0.39794375  0.43358015    -0.55100
O1142       O  0.55351934  0.42268079  0.48264609    -0.56300
C1143       C  0.94845605  0.38135756  0.50215212     0.76300
O1144       O  0.53917838  0.34112262  0.50921546    -0.57500
C1145       C  0.57985488  0.44368343  0.49744385     0.76300
C1146       C  0.50154590  0.37098652  0.56728971     0.78600
Cd1147     Cd  0.51004198  0.37814677  0.51466616     1.37500
O1148       O  0.95178798  0.37269954  0.52392579    -0.56300
O1149       O  0.52978188  0.39887916  0.55727855    -0.55200
C1150       C  0.51006556  0.31101365  0.50191144     0.78600
O1151       O  0.47712118  0.34618488  0.55295726    -0.57500
O1152       O  0.97456930  0.38871310  0.48793272    -0.56000
O1153       O  0.57378490  0.43489883  0.51984554    -0.56000
O1154       O  0.48064444  0.31146598  0.50053555    -0.55100
O1155       O  0.62077025  0.21371441  0.52629353    -0.56300
C1156       C  0.67708710  0.14526005  0.50103195     0.76300
O1157       O  0.71409859  0.27568714  0.50484344    -0.57500
C1158       C  0.60942436  0.20756518  0.50428024     0.76300
C1159       C  0.68610347  0.21022062  0.57367753     0.78600
Cd1160     Cd  0.67655287  0.20929518  0.52057615     1.37500
O1161       O  0.69041347  0.17616201  0.48923565    -0.56300
O1162       O  0.66780759  0.17950231  0.56188024    -0.55200
C1163       C  0.74470840  0.27744883  0.50473248     0.78600
O1164       O  0.69928818  0.24041396  0.56109258    -0.57500
O1165       O  0.66201723  0.14315840  0.52117619    -0.56000
O1166       O  0.62797658  0.20092212  0.48990227    -0.56000
O1167       O  0.74394290  0.24818566  0.51208616    -0.55100
O1168       O  0.62498693  0.99018029  0.46901195    -0.56300
C1169       C  0.67978146  0.11373118  0.49221264     0.76300
O1170       O  0.71791179  0.01782551  0.48780853    -0.57500
C1171       C  0.61562352  0.47680193  0.48926728     0.76300
C1172       C  0.69330375  0.05147616  0.42323468     0.78600
Cd1173     Cd  0.68581857  0.05084540  0.47600853     1.37500
O1174       O  0.69287992  0.11446409  0.47155471    -0.56300
O1175       O  0.66196346  0.03763782  0.43327105    -0.55200
C1176       C  0.74860835  0.04697717  0.49427319     0.78600
O1177       O  0.72140747  0.06635183  0.43754105    -0.57500
O1178       O  0.66976926  0.08459820  0.50523667    -0.56000
O1179       O  0.64197730  0.49692007  0.50430120    -0.56000
O1180       O  0.75029494  0.07813212  0.49329213    -0.55100
O1181       O  0.55933022  0.21698193  0.51001271    -0.56300
C1182       C  0.94880192  0.14219128  0.49602486     0.76300
O1183       O  0.48185686  0.24742868  0.48748436    -0.57500
C1184       C  0.57692506  0.20884608  0.49577364     0.76300
C1185       C  0.51943097  0.22524618  0.42587219     0.78600
Cd1186     Cd  0.51396138  0.21372230  0.47879023     1.37500
O1187       O  0.97445262  0.16329487  0.51115860    -0.56300
O1188       O  0.49676354  0.19334570  0.43563109    -0.55200
C1189       C  0.51076544  0.27767471  0.49493283     0.78600
O1190       O  0.53991048  0.25193026  0.44057058    -0.57500
O1191       O  0.95445621  0.15325532  0.47396292    -0.56000
O1192       O  0.56545987  0.20252753  0.47375804    -0.56000
O1193       O  0.54063431  0.27803958  0.49565816    -0.55100
O1194       O  0.86941900  0.49739045  0.51922447    -0.56300
C1195       C  0.91396968  0.10699355  0.50359165     0.76300
O1196       O  0.81184810  0.07362976  0.50791696    -0.57500
C1197       C  0.84981017  0.47776954  0.50111746     0.76300
C1198       C  0.82850801  0.02796703  0.57094769     0.78600
Cd1199     Cd  0.84339956  0.03909083  0.51854466     1.37500
O1200       O  0.88774414  0.08714640  0.48846016    -0.56300
O1201       O  0.84976349  0.06057109  0.56160290    -0.55200
C1202       C  0.78058150  0.04455421  0.50225322     0.78600
O1203       O  0.81413132  0.00060533  0.55612603    -0.57500
O1204       O  0.90837217  0.09520371  0.52554530    -0.56000
O1205       O  0.82942590  0.48777842  0.49079791    -0.56000
O1206       O  0.77832277  0.01316875  0.50361826    -0.55100
C1207       C  0.66838007  0.02825204  0.35602402    -0.26700
C1208       C  0.70346913  0.04283080  0.34554063     0.06900
C1209       C  0.73552739  0.06172569  0.36063446     0.26500
C1210       C  0.73216677  0.06486391  0.38585350    -0.11200
C1211       C  0.69685860  0.04961481  0.39637397    -0.25200
C1212       C  0.66497432  0.03147735  0.38103347     0.37300
C1213       C  0.70518643  0.03906555  0.31868692     0.06900
F1214       F  0.76988402  0.07633305  0.35114948    -0.19000
H1215       H  0.75722248  0.07898759  0.39719034     0.16700
F1216       F  0.68838899  0.59560601  0.38762421    -0.22700
H1217       H  0.64330415  0.01449504  0.34467367     0.18500
C1218       C  0.68014203  0.00415599  0.30748799     0.26500
C1219       C  0.67062219  0.00314018  0.28280990    -0.11200
C1220       C  0.68473584  0.03721164  0.26917034    -0.25200
C1221       C  0.71733899  0.06977285  0.27860622     0.37400
C1222       C  0.72641644  0.07117373  0.30364715    -0.26900
F1223       F  0.66211236  0.97159338  0.32096493    -0.19000
H1224       H  0.64948508  0.97594438  0.27528672     0.16700
F1225       F  0.73617174  0.10202720  0.26493041    -0.22700
H1226       H  0.74733008  0.09815855  0.31159388     0.18500
C1227       C  0.51563521  0.23514112  0.30322752    -0.26700
C1228       C  0.54258591  0.24284997  0.32139175     0.06900
C1229       C  0.57591358  0.24635960  0.31462746     0.26500
C1230       C  0.57969394  0.23681361  0.29093433    -0.11200
C1231       C  0.54930424  0.22121251  0.27412043    -0.25200
C1232       C  0.51944700  0.22564423  0.27951770     0.37300
C1233       C  0.53342831  0.24056780  0.34763804     0.06900
F1234       F  0.60318185  0.25512277  0.33159917    -0.19000
H1235       H  0.60515162  0.23831397  0.28675240     0.16700
F1236       F  0.97898200  0.21067279  0.26759761    -0.22700
H1237       H  0.98462463  0.23145170  0.31273126     0.18500
C1238       C  0.55444421  0.27142349  0.36340174     0.26500
C1239       C  0.54882906  0.26662935  0.38874706    -0.11200
C1240       C  0.52243402  0.23087900  0.39883037    -0.25200
C1241       C  0.50020743  0.20046318  0.38278592     0.37400
C1242       C  0.50568125  0.20542996  0.35749554    -0.26900
F1243       F  0.58087190  0.30592544  0.35431133    -0.19000
H1244       H  0.56595607  0.29070220  0.40054873     0.16700
F1245       F  0.47407402  0.16551200  0.39148326    -0.22700
H1246       H  0.48931591  0.18124977  0.34561244     0.18500
C1247       C  0.62386427  0.10129588  0.22866676    -0.26700
C1248       C  0.63189828  0.12405934  0.24926975     0.06900
C1249       C  0.65149771  0.12017660  0.26901528     0.26500
C1250       C  0.66164253  0.09344701  0.26835678    -0.11200
C1251       C  0.65485744  0.07116202  0.24735327    -0.25200
C1252       C  0.63531568  0.07575163  0.22752107     0.37300
C1253       C  0.61649383  0.14871654  0.25084793     0.06900
F1254       F  0.66053494  0.14187412  0.28928769    -0.19000
H1255       H  0.67335993  0.08975778  0.28502422     0.16700
F1256       F  0.62638696  0.05471836  0.20694143    -0.22700
H1257       H  0.60748805  0.10224267  0.21352305     0.18500
C1258       C  0.61519531  0.16902900  0.23042422     0.26500
C1259       C  0.59508250  0.18669752  0.23109145    -0.11200
C1260       C  0.57689707  0.18655892  0.25254551    -0.25200
C1261       C  0.58011343  0.16724406  0.27331368     0.37400
C1262       C  0.59924104  0.14874867  0.27230035    -0.26900
F1263       F  0.63206100  0.17054120  0.20928836    -0.19000
H1264       H  0.59177646  0.19767715  0.21389107     0.16700
F1265       F  0.56198719  0.16309298  0.29432876    -0.22700
H1266       H  0.59837688  0.13228260  0.28811650     0.18500
C1267       C  0.81969141  0.35771744  0.30262425    -0.26700
C1268       C  0.83972662  0.34899230  0.31927395     0.06900
C1269       C  0.86839267  0.34553789  0.31047438     0.26500
C1270       C  0.88091012  0.35708052  0.28658877    -0.11200
C1271       C  0.86574740  0.37331289  0.27117565    -0.25200
C1272       C  0.83181524  0.36862779  0.27851133     0.37300
C1273       C  0.83587492  0.35085731  0.34603049     0.06900
F1274       F  0.88730320  0.33542514  0.32577142    -0.19000
H1275       H  0.90489595  0.35654084  0.28123858     0.16700
F1276       F  0.81307908  0.37922709  0.26345533    -0.22700
H1277       H  0.79643167  0.35899693  0.30883875     0.18500
C1278       C  0.84398956  0.38514475  0.35627052     0.26500
C1279       C  0.84562653  0.38937614  0.38165798    -0.11200
C1280       C  0.83896774  0.35948470  0.39745598    -0.25200
C1281       C  0.82993379  0.32474939  0.38719920     0.37400
C1282       C  0.82872998  0.32068563  0.36169980    -0.26900
F1283       F  0.85230913  0.41533025  0.34168281    -0.19000
H1284       H  0.85260430  0.41637141  0.38896485     0.16700
F1285       F  0.82348327  0.29513596  0.40173151    -0.22700
H1286       H  0.82290564  0.29422855  0.35416033     0.18500
C1287       C  0.56062843  0.46072213  0.25603628    -0.26700
C1288       C  0.54967419  0.43989265  0.23435075     0.06900
C1289       C  0.57186987  0.95172600  0.21995596     0.26500
C1290       C  0.60970852  0.98051988  0.22232328    -0.11200
C1291       C  0.62399047  0.00260101  0.24385187    -0.25200
C1292       C  0.59869814  0.99313959  0.26324168     0.37300
C1293       C  0.50932452  0.41458767  0.22945540     0.06900
F1294       F  0.55888250  0.93290704  0.19845373    -0.19000
H1295       H  0.62654330  0.98698605  0.20634739     0.16700
F1296       F  0.60961838  0.01361905  0.28418335    -0.22700
H1297       H  0.54052847  0.45388157  0.27022079     0.18500
C1298       C  0.98548507  0.41398514  0.23912181     0.26500
C1299       C  0.94708226  0.39882997  0.23964851    -0.11200
C1300       C  0.93173745  0.41479591  0.25432401    -0.25200
C1301       C  0.95629950  0.44028090  0.27256329     0.37400
C1302       C  0.99461298  0.45682693  0.27117294    -0.26900
F1303       F  0.49987754  0.37438376  0.26404753    -0.19000
H1304       H  0.92945640  0.37475420  0.22799489     0.16700
F1305       F  0.94445043  0.44684745  0.29335854    -0.22700
H1306       H  0.51061259  0.95529385  0.20232132     0.18500
C1307       C  0.89752715  0.00324047  0.25540773    -0.26700
C1308       C  0.93541773  0.03204361  0.25531152     0.06900
C1309       C  0.96214645  0.02251930  0.25408287     0.26500
C1310       C  0.89263727  0.45653085  0.27586253    -0.11200
C1311       C  0.88628598  0.43833525  0.25315720    -0.25200
C1312       C  0.87629047  0.45453947  0.23363404     0.37300
C1313       C  0.94833059  0.07243003  0.25347280     0.06900
F1314       F  0.99914311  0.04984372  0.25536515    -0.19000
H1315       H  0.89009011  0.44174030  0.29285013     0.16700
F1316       F  0.85526849  0.43427035  0.21401817    -0.22700
H1317       H  0.87660759  0.01026018  0.25694286     0.18500
C1318       C  0.47674946  0.09540290  0.23108225     0.26500
C1319       C  0.50260158  0.13412739  0.23107715    -0.11200
C1320       C  0.51032134  0.15630833  0.25228884    -0.25200
C1321       C  0.97737058  0.13316462  0.27413039     0.37400
C1322       C  0.95354092  0.09345171  0.27443019    -0.26900
F1323       F  0.47220443  0.07528685  0.21064239    -0.19000
H1324       H  0.51862230  0.14653117  0.21462692     0.16700
F1325       F  0.98437402  0.15066071  0.29598009    -0.22700
H1326       H  0.94186573  0.07889250  0.29162692     0.18500
C1327       C  0.69281214  0.01477686  0.13791551    -0.26700
C1328       C  0.72131787  0.04723512  0.15003873     0.06900
C1329       C  0.74910490  0.07747310  0.13591694     0.26500
C1330       C  0.74661916  0.07619168  0.11025706    -0.11200
C1331       C  0.71673804  0.04459271  0.09815808    -0.25200
C1332       C  0.69051154  0.01329490  0.11234777     0.37300
C1333       C  0.71834284  0.05054347  0.17688284     0.06900
F1334       F  0.77430072  0.61292422  0.14419162    -0.19000
H1335       H  0.76531819  0.60241736  0.09725480     0.16700
F1336       F  0.66158744  0.98176313  0.10164054    -0.22700
H1337       H  0.67099431  0.99111928  0.14827742     0.18500
C1338       C  0.71860057  0.08175663  0.18618090     0.26500
C1339       C  0.70516323  0.07996811  0.20953365    -0.11200
C1340       C  0.68889024  0.04618089  0.22371004    -0.25200
C1341       C  0.69532595  0.01803996  0.21618577     0.37400
C1342       C  0.70894712  0.01980886  0.19274000    -0.26900
F1343       F  0.72811193  0.11255219  0.17190814    -0.19000
H1344       H  0.70537139  0.10452893  0.21555641     0.16700
F1345       F  0.68435994  0.98668731  0.23023334    -0.22700
H1346       H  0.70984914  0.99596762  0.18636528     0.18500
C1347       C  0.57180851  0.23274740  0.14018202    -0.26700
C1348       C  0.54934190  0.24283451  0.15181455     0.06900
C1349       C  0.52527808  0.24912081  0.13737241     0.26500
C1350       C  0.52283445  0.24392028  0.11199307    -0.11200
C1351       C  0.54428705  0.23238782  0.10045447    -0.25200
C1352       C  0.56936740  0.22750408  0.11482919     0.37300
C1353       C  0.54779617  0.24136209  0.17901223     0.06900
F1354       F  0.50376761  0.25981468  0.14781987    -0.19000
H1355       H  0.50366740  0.24841919  0.10140231     0.16700
F1356       F  0.59111691  0.21699161  0.10454236    -0.22700
H1357       H  0.59022304  0.22730858  0.15092087     0.18500
C1358       C  0.51367116  0.21706554  0.19051675     0.26500
C1359       C  0.51307454  0.20697100  0.21501244    -0.11200
C1360       C  0.54651701  0.21873351  0.22836999    -0.25200
C1361       C  0.57984024  0.24923418  0.21833350     0.37400
C1362       C  0.58064236  0.25929070  0.19351384    -0.26900
F1363       F  0.97269267  0.19419498  0.17472855    -0.19000
H1364       H  0.97344424  0.18296735  0.22112486     0.16700
F1365       F  0.61238515  0.26551610  0.23135376    -0.22700
H1366       H  0.60720940  0.27931587  0.18523818     0.18500
C1367       C  0.83942650  0.34145430  0.19227900    -0.26700
C1368       C  0.86385972  0.36605421  0.17414071     0.06900
C1369       C  0.89496655  0.40112292  0.18094940     0.26500
C1370       C  0.90151168  0.41166737  0.20527860    -0.11200
C1371       C  0.87788171  0.38740268  0.22419012    -0.25200
C1372       C  0.84656005  0.35156798  0.21720611     0.37300
C1373       C  0.85759510  0.35685273  0.14780745     0.06900
F1374       F  0.91893110  0.42571545  0.16386989    -0.19000
H1375       H  0.92565962  0.43949171  0.20959173     0.16700
F1376       F  0.82271721  0.32627281  0.23396572    -0.22700
H1377       H  0.81514444  0.31422601  0.18714496     0.18500
C1378       C  0.88410766  0.35403299  0.13487702     0.26500
C1379       C  0.88459860  0.35605699  0.10930742    -0.11200
C1380       C  0.85869697  0.36100766  0.09613730    -0.25200
C1381       C  0.83054518  0.36121884  0.10911575     0.37400
C1382       C  0.83016401  0.35925105  0.13475071    -0.26900
F1383       F  0.91096101  0.35169428  0.14713182    -0.19000
H1384       H  0.90621854  0.35522425  0.09987643     0.16700
F1385       F  0.80427985  0.36488014  0.09718589    -0.22700
H1386       H  0.80984780  0.36196605  0.14445933     0.18500
C1387       C  0.69150779  0.18008695  0.63905951    -0.26700
C1388       C  0.69645434  0.21082052  0.65246046     0.06900
C1389       C  0.70071162  0.24246303  0.63969400     0.26500
C1390       C  0.69857724  0.24258615  0.61406080    -0.11200
C1391       C  0.69146105  0.21091593  0.60067856    -0.25200
C1392       C  0.68877384  0.17991906  0.61343711     0.37300
C1393       C  0.69030946  0.20639319  0.67928148     0.06900
F1394       F  0.70553150  0.27264252  0.65208000    -0.19000
H1395       H  0.70101214  0.26690974  0.60471339     0.16700
F1396       F  0.68300453  0.14921830  0.60120959    -0.22700
H1397       H  0.68774376  0.15525791  0.64853826     0.18500
C1398       C  0.65932353  0.20514826  0.68853948     0.26500
C1399       C  0.64731709  0.19154333  0.71212569    -0.11200
C1400       C  0.66476713  0.17700410  0.72694651    -0.25200
C1401       C  0.70027579  0.18610399  0.71945252     0.37400
C1402       C  0.71193401  0.19876875  0.69530689    -0.26900
F1403       F  0.63859052  0.21399891  0.67408695    -0.19000
H1404       H  0.62294979  0.19091016  0.71800827     0.16700
F1405       F  0.72136614  0.17822060  0.73428467    -0.22700
H1406       H  0.73691510  0.20107814  0.68881554     0.18500
C1407       C  0.66452318  0.20999015  0.85866612    -0.26700
C1408       C  0.69595957  0.21527199  0.84686607     0.06900
C1409       C  0.72739950  0.22340045  0.86099823     0.26500
C1410       C  0.72649179  0.22384936  0.88653580    -0.11200
C1411       C  0.69419465  0.21610529  0.89850850    -0.25200
C1412       C  0.66354441  0.21041064  0.88426336     0.37300
C1413       C  0.69344161  0.20658789  0.82046406     0.06900
F1414       F  0.75855095  0.22963447  0.85008930    -0.19000
H1415       H  0.75077082  0.22905348  0.89696369     0.16700
F1416       F  0.63223786  0.20411950  0.89498562    -0.22700
H1417       H  0.63996009  0.20358980  0.84807302     0.18500
C1418       C  0.69654943  0.17651680  0.81307492     0.26500
C1419       C  0.68572834  0.16218158  0.78946075    -0.11200
C1420       C  0.66950174  0.17605271  0.77297832    -0.25200
C1421       C  0.67352270  0.21089221  0.77898752     0.37400
C1422       C  0.68386376  0.22501553  0.80289572    -0.26900
F1423       F  0.70674700  0.15858278  0.82933886    -0.19000
H1424       H  0.68784476  0.13836686  0.78499247     0.16700
F1425       F  0.66238789  0.22824283  0.76296132    -0.22700
H1426       H  0.68256287  0.24914608  0.80803700     0.18500
C1427       C  0.80187403  0.98107022  0.63390775    -0.26700
C1428       C  0.81775928  0.01275571  0.64928178     0.06900
C1429       C  0.83391549  0.04911746  0.63873447     0.26500
C1430       C  0.83599855  0.05375423  0.61322298    -0.11200
C1431       C  0.82181810  0.02221078  0.59774970    -0.25200
C1432       C  0.80337952  0.98557387  0.60839574     0.37300
C1433       C  0.82438469  0.00842741  0.67555367     0.06900
F1434       F  0.85014147  0.08033328  0.65311860    -0.19000
H1435       H  0.85000932  0.08223711  0.60560591     0.16700
F1436       F  0.82361516  0.47270920  0.60017842    -0.22700
H1437       H  0.82507670  0.47914933  0.64705567     0.18500
C1438       C  0.80723233  0.01546242  0.69454125     0.26500
C1439       C  0.81693338  0.01385152  0.71921105    -0.11200
C1440       C  0.84475509  0.00619627  0.72535294    -0.25200
C1441       C  0.86138729  0.99894528  0.70563623     0.37400
C1442       C  0.85086650  0.99953450  0.68144123    -0.26900
F1443       F  0.78149670  0.02433279  0.68919523    -0.19000
H1444       H  0.80350122  0.01993136  0.73326947     0.16700
F1445       F  0.91323244  0.53116040  0.71261453    -0.22700
H1446       H  0.86482558  0.99465949  0.66703915     0.18500
C1447       C  0.81619009  0.51431709  0.80997560    -0.26700
C1448       C  0.82758461  0.03036794  0.81995870     0.06900
C1449       C  0.84848511  0.06081276  0.80363811     0.26500
C1450       C  0.85316860  0.05384128  0.77946757    -0.11200
C1451       C  0.83896747  0.01638029  0.77155848    -0.25200
C1452       C  0.82346790  0.51008856  0.78585302     0.37300
C1453       C  0.83249684  0.03615485  0.84697792     0.06900
F1454       F  0.86715522  0.09718863  0.81164399    -0.19000
H1455       H  0.87200202  0.07790133  0.76806496     0.16700
F1456       F  0.80607049  0.47448243  0.77664225    -0.22700
H1457       H  0.79878113  0.48900515  0.82084778     0.18500
C1458       C  0.80737358  0.53147230  0.86304718     0.26500
C1459       C  0.80834974  0.02019564  0.88844438    -0.11200
C1460       C  0.84480040  0.04112897  0.89842961    -0.25200
C1461       C  0.87499067  0.06024924  0.88238805     0.37400
C1462       C  0.86882297  0.05758800  0.85704971    -0.26900
F1463       F  0.77234044  0.51112360  0.85329663    -0.19000
H1464       H  0.78812972  0.51225776  0.89953968     0.16700
F1465       F  0.91067109  0.08028807  0.89109098    -0.22700
H1466       H  0.89277591  0.07123097  0.84521883     0.18500
C1467       C  0.96453124  0.07611156  0.77272900    -0.26700
C1468       C  0.98171141  0.09448629  0.75085634     0.06900
C1469       C  0.95911225  0.09122480  0.73078307     0.26500
C1470       C  0.92042172  0.06683625  0.73195112    -0.11200
C1471       C  0.90282350  0.04269555  0.75257212    -0.25200
C1472       C  0.92581509  0.05250035  0.77400900     0.37300
C1473       C  0.52775941  0.11701464  0.75268518     0.06900
F1474       F  0.97436403  0.11161435  0.70994679    -0.19000
H1475       H  0.90484509  0.06732287  0.71623488     0.16700
F1476       F  0.91161382  0.04322192  0.79675065    -0.22700
H1477       H  0.98102943  0.07990505  0.78908907     0.18500
C1478       C  0.55232029  0.14009166  0.77137981     0.26500
C1479       C  0.58991231  0.15187154  0.77102894    -0.11200
C1480       C  0.60461024  0.14276113  0.75126550    -0.25200
C1481       C  0.57924747  0.11989608  0.73239952     0.37400
C1482       C  0.54170111  0.10721322  0.73328706    -0.26900
F1483       F  0.53995894  0.15089976  0.79020898    -0.19000
H1484       H  0.60638303  0.16668555  0.78696396     0.16700
F1485       F  0.59069480  0.10867206  0.71326531    -0.22700
H1486       H  0.52313596  0.08843834  0.71902454     0.18500
C1487       C  0.97118820  0.33664088  0.63645500    -0.26700
C1488       C  0.48993246  0.36534685  0.64548875     0.06900
C1489       C  0.52473740  0.39023333  0.63485680     0.26500
C1490       C  0.52839777  0.39151894  0.60944192    -0.11200
C1491       C  0.49744412  0.36791829  0.59422642    -0.25200
C1492       C  0.97303352  0.33717222  0.61082138     0.37300
C1493       C  0.48495856  0.36780687  0.67183032     0.06900
F1494       F  0.55483744  0.41424875  0.64902063    -0.19000
H1495       H  0.55541686  0.41136050  0.60164242     0.16700
F1496       F  0.94336077  0.30957461  0.59791532    -0.22700
H1497       H  0.94598981  0.31481454  0.64538526     0.18500
C1498       C  0.99735653  0.40305020  0.68326038     0.26500
C1499       C  0.99792251  0.41120670  0.70776926    -0.11200
C1500       C  0.48603637  0.38251640  0.72250881    -0.25200
C1501       C  0.49383353  0.35546223  0.71443014     0.37400
C1502       C  0.49396080  0.34893696  0.68932809    -0.26900
F1503       F  0.99951550  0.42806681  0.66606698    -0.19000
H1504       H  0.00096053  0.43792861  0.71200533     0.16700
F1505       F  0.50173360  0.33531678  0.73023240    -0.22700
H1506       H  0.50193577  0.32971628  0.68349114     0.18500
C1507       C  0.53583162  0.36301824  0.79758841    -0.26700
C1508       C  0.50949899  0.35153496  0.81610649     0.06900
C1509       C  0.97712113  0.34811189  0.81469750     0.26500
C1510       C  0.97312220  0.36151087  0.79206343    -0.11200
C1511       C  0.49615037  0.37305323  0.76906690    -0.25200
C1512       C  0.52894260  0.37255703  0.77410508     0.37300
C1513       C  0.51984966  0.35240847  0.84235877     0.06900
F1514       F  0.95246253  0.34137471  0.83247453    -0.19000
H1515       H  0.95021861  0.36545303  0.79067876     0.16700
F1516       F  0.55675690  0.38650167  0.75757200    -0.22700
H1517       H  0.56279605  0.36717969  0.80178334     0.18500
C1518       C  0.49688190  0.32195915  0.85816919     0.26500
C1519       C  0.50100142  0.32680061  0.88356254    -0.11200
C1520       C  0.52794621  0.36210665  0.89370311    -0.25200
C1521       C  0.55283563  0.39166907  0.87790298     0.37400
C1522       C  0.54878215  0.38673397  0.85247876    -0.26900
F1523       F  0.46917418  0.28813148  0.84901188    -0.19000
H1524       H  0.48189278  0.30332635  0.89527066     0.16700
F1525       F  0.58039215  0.42567786  0.88692906    -0.22700
H1526       H  0.07027779  0.40143078  0.84389100     0.18500
C1527       C  0.96027771  0.46237081  0.76231477    -0.26700
C1528       C  0.92232818  0.43465253  0.75992683     0.06900
C1529       C  0.91124664  0.39752490  0.75412503     0.26500
C1530       C  0.93815435  0.38818957  0.75217072    -0.11200
C1531       C  0.97676287  0.41542288  0.75633260    -0.25200
C1532       C  0.98715624  0.45357919  0.76007867     0.37300
C1533       C  0.89600443  0.44698426  0.76234436     0.06900
F1534       F  0.87461329  0.37030172  0.75073652    -0.19000
H1535       H  0.92885651  0.35920375  0.74776510     0.16700
F1536       F  0.02277419  0.48376395  0.75985022    -0.22700
H1537       H  0.96938216  0.49175360  0.76523064     0.18500
C1538       C  0.89919001  0.46825625  0.78273376     0.26500
C1539       C  0.87236703  0.96670147  0.78131982    -0.11200
C1540       C  0.87407564  0.49948295  0.75865944    -0.25200
C1541       C  0.86045793  0.46936253  0.74146676     0.37400
C1542       C  0.87332640  0.44476391  0.74263453    -0.26900
F1543       F  0.90608353  0.94524425  0.80381439    -0.19000
H1544       H  0.87390735  0.98204024  0.79721616     0.16700
F1545       F  0.83543446  0.46364660  0.72346293    -0.22700
H1546       H  0.86760928  0.42595818  0.72749696     0.18500
C1547       C  0.58528002  0.49382115  0.77015611    -0.26700
C1548       C  0.59565312  0.99086024  0.75160342     0.06900
C1549       C  0.57843612  0.49691091  0.72645088     0.26500
C1550       C  0.55135859  0.45818244  0.72636064    -0.11200
C1551       C  0.53552572  0.43784004  0.74840220    -0.25200
C1552       C  0.55506961  0.45611137  0.77046817     0.37300
C1553       C  0.61460008  0.03319806  0.75304096     0.06900
F1554       F  0.59590883  0.99067111  0.70738085    -0.19000
H1555       H  0.54106405  0.44597067  0.70858843     0.16700
F1556       F  0.54179019  0.44012044  0.79274406    -0.22700
H1557       H  0.59348084  0.98147920  0.79080283     0.18500
C1558       C  0.60425622  0.04937213  0.77100332     0.26500
C1559       C  0.61823546  0.08801733  0.77068835    -0.11200
C1560       C  0.63964788  0.11210722  0.75108014    -0.25200
C1561       C  0.64969736  0.09554079  0.73286813     0.37400
C1562       C  0.63914873  0.05748744  0.73484815    -0.26900
F1563       F  0.57794715  0.02775414  0.78784299    -0.19000
H1564       H  0.60942454  0.09878333  0.78507750     0.16700
F1565       F  0.66688423  0.11383143  0.71200140    -0.22700
H1566       H  0.64876593  0.04668742  0.72106717     0.18500
C1567       C  0.49523452  0.87727476  0.74794857    -0.01000
C1568       C  0.87597491  0.53787659  0.75378163    -0.01600
C1569       C  0.64338653  0.67689767  0.74842843    -0.01000
O1570       O  0.93789366  0.89507672  0.01624631    -0.56300
C1571       C  0.87460905  0.94715657  0.99806486     0.76300
O1572       O  0.82495621  0.80867097  0.01349844    -0.57500
C1573       C  0.93872746  0.88230995  0.99569851     0.76300
C1574       C  0.86223968  0.87149362  0.06626417     0.78600
Cd1575     Cd  0.87212579  0.87861731  0.01338421     1.37500
O1576       O  0.86415215  0.91977556  0.98370177    -0.56300
O1577       O  0.84199447  0.87720134  0.05184558    -0.55200
C1578       C  0.80223190  0.81037359  0.99900808     0.78600
O1579       O  0.88743966  0.86911997  0.05628979    -0.57500
O1580       O  0.88644774  0.94433658  0.01894883    -0.56000
O1581       O  0.90927040  0.86851741  0.98271720    -0.56000
O1582       O  0.81241224  0.84279355  0.99049576    -0.55100
O1583       O  0.99795105  0.88924267  0.00258702    -0.56300
C1584       C  0.59949268  0.94494214  0.98994986     0.76300
O1585       O  0.56559457  0.84310411  0.98596276    -0.57500
C1586       C  0.97189560  0.88268196  0.98777337     0.76300
C1587       C  0.52347998  0.85903440  0.92124723     0.78600
Cd1588     Cd  0.53201933  0.87511138  0.97343111     1.37500
O1589       O  0.57140015  0.92592679  0.00340693    -0.56300
O1590       O  0.54256206  0.89255021  0.92942850    -0.55200
C1591       C  0.53677272  0.81287108  0.99340512     0.78600
O1592       O  0.50741283  0.83293100  0.93715299    -0.57500
O1593       O  0.59658455  0.93238523  0.96860796    -0.56000
O1594       O  0.97569136  0.87578556  0.96602375    -0.56000
O1595       O  0.50651019  0.81174185  0.99195104    -0.55100
O1596       O  0.92257455  0.60652942  0.97286998    -0.56300
C1597       C  0.87177485  0.97979172  0.99113447     0.76300
O1598       O  0.79777937  0.51433070  0.99165146    -0.57500
C1599       C  0.93270695  0.61161479  0.99512848     0.76300
C1600       C  0.85337858  0.54682851  0.92593911     0.78600
Cd1601     Cd  0.86330552  0.54394773  0.97854023     1.37500
O1602       O  0.85921571  0.98215073  0.97045516    -0.56300
O1603       O  0.88534409  0.56189551  0.93601436    -0.55200
C1604       C  0.79950393  0.54507821  0.99492542     0.78600
O1605       O  0.82590517  0.52889632  0.94006771    -0.57500
O1606       O  0.88058777  0.00642160  0.00578651    -0.56000
O1607       O  0.91096502  0.58571435  0.00990323    -0.56000
O1608       O  0.83091629  0.57535352  0.99164455    -0.55100
O1609       O  0.98807681  0.67311398  0.98889164    -0.56300
C1610       C  0.59975871  0.71176916  0.00781790     0.76300
O1611       O  0.50890992  0.75183084  0.01207204    -0.57500
C1612       C  0.96772222  0.64598398  0.00338341     0.76300
C1613       C  0.53867447  0.72447193  0.07734003     0.78600
Cd1614     Cd  0.53684877  0.71555727  0.02433346     1.37500
O1615       O  0.56640499  0.68743002  0.00158873    -0.56300
O1616       O  0.54906730  0.70449895  0.06764084    -0.55200
C1617       C  0.53781490  0.78050504  0.00336639     0.78600
O1618       O  0.52692249  0.73962814  0.06268541    -0.57500
O1619       O  0.60441065  0.73775619  0.02183128    -0.56000
O1620       O  0.97894395  0.65011722  0.02541148    -0.56000
O1621       O  0.56706850  0.77956672  0.00377845    -0.55100
O1622       O  0.62669736  0.68470552  0.98441294    -0.56300
C1623       C  0.69336755  0.64262097  0.99215498     0.76300
O1624       O  0.72133028  0.72226844  0.93682342    -0.57500
C1625       C  0.63144582  0.71046675  0.99868285     0.76300
C1626       C  0.76572879  0.77674975  0.99241055     0.78600
Cd1627     Cd  0.69431235  0.71076023  0.97792658     1.37500
O1628       O  0.69254125  0.66417490  0.00764351    -0.56300
O1629       O  0.75492076  0.74405816  0.00080998    -0.55200
C1630       C  0.69461879  0.72083912  0.92508162     0.78600
O1631       O  0.74331346  0.77917483  0.97807023    -0.57500
O1632       O  0.69287517  0.65120202  0.96987036    -0.56000
O1633       O  0.66493123  0.73554011  0.00419236    -0.56000
O1634       O  0.66696249  0.71366659  0.93768021    -0.55100
O1635       O  0.69474150  0.60100527  0.02217468    -0.56300
C1636       C  0.63386692  0.97931485  0.99895149     0.76300
O1637       O  0.76706291  0.57601997  0.00236256    -0.57500
C1638       C  0.69561964  0.60991098  0.99986354     0.76300
C1639       C  0.71029045  0.54638497  0.06890939     0.78600
Cd1640     Cd  0.70177693  0.54655160  0.01617663     1.37500
O1641       O  0.66099915  0.49803045  0.98542158    -0.56300
O1642       O  0.73402982  0.57370917  0.05574516    -0.55200
C1643       C  0.76660906  0.54556026  0.00188671     0.78600
O1644       O  0.68290659  0.51905149  0.05762439    -0.57500
O1645       O  0.63564249  0.99286853  0.01978012    -0.56000
O1646       O  0.69928159  0.58968788  0.98475518    -0.56000
O1647       O  0.73622312  0.51547825  0.00747819    -0.55100
C1648       C  0.90112922  0.91369575  0.24371930    -0.01000
C1649       C  0.53554188  0.68750966  0.25376645    -0.01000
C1650       C  0.66188868  0.54237359  0.24371042    -0.01000
O1651       O  0.90637344  0.89667374  0.50196094    -0.56300
C1652       C  0.84925936  0.94344007  0.49193643     0.76300
O1653       O  0.83310309  0.84344235  0.43630050    -0.57500
C1654       C  0.91860564  0.88058613  0.48955890     0.76300
C1655       C  0.78275647  0.80938610  0.49465579     0.78600
Cd1656     Cd  0.84961224  0.87689264  0.47588499     1.37500
O1657       O  0.86192070  0.92776118  0.50536082    -0.56300
O1658       O  0.78123209  0.83045878  0.47845856    -0.55200
C1659       C  0.84760667  0.87295122  0.42294023     0.78600
O1660       O  0.81485691  0.81989353  0.50293772    -0.57500
O1661       O  0.83700451  0.92892531  0.47106765    -0.56000
O1662       O  0.89998725  0.86384387  0.47047667    -0.56000
O1663       O  0.86379597  0.90441479  0.43405682    -0.55100
O1664       O  0.56163105  0.92107568  0.48420226    -0.56300
C1665       C  0.95194236  0.88032740  0.49735698     0.76300
O1666       O  0.54708843  0.83883609  0.50883436    -0.57500
C1667       C  0.58312923  0.94657843  0.49926882     0.76300
C1668       C  0.50766047  0.85771185  0.56707958     0.78600
Cd1669     Cd  0.51697333  0.87513967  0.51496167     1.37500
O1670       O  0.97145267  0.89860255  0.51587065    -0.56300
O1671       O  0.53985787  0.87825084  0.55809022    -0.55200
C1672       C  0.51866468  0.80958551  0.49999808     0.78600
O1673       O  0.48061128  0.84591503  0.55208222    -0.57500
O1674       O  0.96198261  0.86098126  0.48634839    -0.56000
O1675       O  0.57373678  0.93991915  0.52147897    -0.56000
O1676       O  0.48983918  0.81091278  0.49706314    -0.55100
O1677       O  0.62105030  0.69769761  0.52606494    -0.56300
C1678       C  0.68299064  0.64010356  0.50238704     0.76300
O1679       O  0.71728272  0.76240925  0.49360985    -0.57500
C1680       C  0.61589790  0.70322627  0.50387263     0.76300
C1681       C  0.68959768  0.71514528  0.57350302     0.78600
Cd1682     Cd  0.68290380  0.70566810  0.52054591     1.37500
O1683       O  0.71246982  0.67247765  0.50491319    -0.56300
O1684       O  0.68295768  0.68493154  0.56358098    -0.55200
C1685       C  0.74907320  0.77443765  0.50322558     0.78600
O1686       O  0.69212640  0.74037873  0.55901960    -0.57500
O1687       O  0.65310410  0.63730778  0.50843749    -0.56000
O1688       O  0.64093733  0.70880286  0.48917510    -0.56000
O1689       O  0.75043696  0.75466618  0.52051070    -0.55100
O1690       O  0.62157416  0.48685941  0.46697867    -0.56300
C1691       C  0.68366374  0.60768899  0.49283675     0.76300
O1692       O  0.71649480  0.51520511  0.49619565    -0.57500
C1693       C  0.61749695  0.98179652  0.49140593     0.76300
C1694       C  0.69255351  0.54366996  0.42099809     0.78600
Cd1695     Cd  0.68538545  0.54357205  0.47384245     1.37500
O1696       O  0.71390672  0.61009734  0.48848535    -0.56300
O1697       O  0.68639271  0.56656382  0.43128461    -0.55200
C1698       C  0.74948905  0.54289366  0.49270902     0.78600
O1699       O  0.69425132  0.52022941  0.43502428    -0.57500
O1700       O  0.65414288  0.57599406  0.48842130    -0.56000
O1701       O  0.64136772  0.00503987  0.50669526    -0.56000
O1702       O  0.75294475  0.57130201  0.48145467    -0.55100
O1703       O  0.56032691  0.70296546  0.51073608    -0.56300
C1704       C  0.95154872  0.64294012  0.49479066     0.76300
O1705       O  0.49037325  0.74638326  0.48512669    -0.57500
C1706       C  0.58301201  0.70409460  0.49571768     0.76300
C1707       C  0.52002594  0.71584715  0.42719643     0.78600
Cd1708     Cd  0.51947458  0.70915372  0.47985855     1.37500
O1709       O  0.97090708  0.67085673  0.50883570    -0.56300
O1710       O  0.50240681  0.68376904  0.43787817    -0.55200
C1711       C  0.51901145  0.77575570  0.49367480     0.78600
O1712       O  0.53841703  0.74445168  0.44089764    -0.57500
O1713       O  0.96338559  0.64643325  0.47330455    -0.56000
O1714       O  0.57630544  0.70685020  0.47337318    -0.56000
O1715       O  0.54778265  0.77430556  0.49663387    -0.55100
O1716       O  0.86276441  0.99222977  0.52060394    -0.56300
C1717       C  0.91685671  0.60846595  0.50288453     0.76300
O1718       O  0.81504766  0.56988207  0.49756680    -0.57500
C1719       C  0.84828584  0.97632886  0.50035515     0.76300
C1720       C  0.83828465  0.53747242  0.57127924     0.78600
Cd1721     Cd  0.84696391  0.54155946  0.51849288     1.37500
O1722       O  0.89564924  0.58216418  0.48819550    -0.56300
O1723       O  0.84554131  0.56659592  0.55900258    -0.55200
C1724       C  0.78216135  0.54211874  0.50111379     0.78600
O1725       O  0.83537672  0.51050896  0.55917616    -0.57500
O1726       O  0.90639740  0.60373685  0.52483117    -0.56000
O1727       O  0.83245383  0.98985343  0.48797705    -0.56000
O1728       O  0.77893882  0.51364533  0.51212868    -0.55100
C1729       C  0.69935849  0.56937104  0.35331786    -0.26700
C1730       C  0.70585095  0.54299830  0.34298108     0.06900
C1731       C  0.70929411  0.51781536  0.35854348     0.26500
C1732       C  0.70523992  0.51843928  0.38385538    -0.11200
C1733       C  0.69768755  0.54414145  0.39416914    -0.25200
C1734       C  0.69532007  0.57005066  0.37859188     0.37300
C1735       C  0.70445664  0.53956646  0.31592872     0.06900
F1736       F  0.71640200  0.49251548  0.34927967    -0.19000
H1737       H  0.70769017  0.49847565  0.39538175     0.16700
F1738       F  0.63031891  0.01659129  0.39010206    -0.22700
H1739       H  0.69606246  0.58867858  0.34164667     0.18500
C1740       C  0.67777505  0.50518581  0.30480419     0.26500
C1741       C  0.66778283  0.50491043  0.28029368    -0.11200
C1742       C  0.68238411  0.53926805  0.26682645    -0.25200
C1743       C  0.71543013  0.57130074  0.27622081     0.37400
C1744       C  0.72525450  0.57192062  0.30100229    -0.26900
F1745       F  0.65825756  0.47262184  0.31813127    -0.19000
H1746       H  0.64619797  0.47792358  0.27279411     0.16700
F1747       F  0.73432834  0.60383781  0.26281370    -0.22700
H1748       H  0.74725773  0.59839454  0.30895870     0.18500
C1749       C  0.49833178  0.71745915  0.30564182    -0.26700
C1750       C  0.52833687  0.73211363  0.32234793     0.06900
C1751       C  0.56354939  0.74235419  0.31411075     0.26500
C1752       C  0.56710412  0.73196038  0.29073777    -0.11200
C1753       C  0.53527491  0.71004979  0.27565820    -0.25200
C1754       C  0.50213820  0.70791843  0.28201001     0.37300
C1755       C  0.52160767  0.72899903  0.34887124     0.06900
F1756       F  0.59356240  0.75837670  0.32959042    -0.19000
H1757       H  0.59419452  0.73818686  0.28547366     0.16700
F1758       F  0.96764107  0.69527316  0.26528789    -0.22700
H1759       H  0.97351594  0.72057326  0.30931811     0.18500
C1760       C  0.53987066  0.76096681  0.36394135     0.26500
C1761       C  0.53856952  0.75647281  0.38941009    -0.11200
C1762       C  0.51927621  0.72000506  0.40021899    -0.25200
C1763       C  0.49973552  0.68805482  0.38496818     0.37400
C1764       C  0.50087962  0.69267210  0.35954720    -0.26900
F1765       F  0.55967675  0.79637640  0.35398801    -0.19000
H1766       H  0.55340084  0.78159083  0.40067087     0.16700
F1767       F  0.48057051  0.65230511  0.39446852    -0.22700
H1768       H  0.48703683  0.66768834  0.34810252     0.18500
C1769       C  0.61999349  0.60339034  0.22919175    -0.26700
C1770       C  0.63016564  0.62687698  0.24964741     0.06900
C1771       C  0.65097123  0.62318415  0.26857291     0.26500
C1772       C  0.66027361  0.59588587  0.26729367    -0.11200
C1773       C  0.65180063  0.57316818  0.24624234    -0.25200
C1774       C  0.63070461  0.57735694  0.22732985     0.37300
C1775       C  0.61477647  0.65127825  0.25219304     0.06900
F1776       F  0.66203413  0.64565741  0.28860919    -0.19000
H1777       H  0.67308907  0.59250617  0.28348577     0.16700
F1778       F  0.61987625  0.55577648  0.20688923    -0.22700
H1779       H  0.60256910  0.60424311  0.21474503     0.18500
C1780       C  0.61172665  0.67079821  0.23197903     0.26500
C1781       C  0.58857564  0.68496474  0.23279290    -0.11200
C1782       C  0.56953383  0.68254442  0.25436175    -0.25200
C1783       C  0.57623929  0.66615854  0.27534302     0.37400
C1784       C  0.59796579  0.65052210  0.27405907    -0.26900
F1785       F  0.62935157  0.67418084  0.21081050    -0.19000
H1786       H  0.58366173  0.69489164  0.21564810     0.16700
F1787       F  0.55914279  0.66189594  0.29683420    -0.22700
H1788       H  0.59919489  0.63523384  0.28990556     0.18500
C1789       C  0.83595707  0.85774538  0.29884891    -0.26700
C1790       C  0.86119063  0.87605366  0.31844651     0.06900
C1791       C  0.89873295  0.90211074  0.31347773     0.26500
C1792       C  0.91063401  0.91131431  0.28951909    -0.11200
C1793       C  0.88578228  0.89493833  0.26922281    -0.25200
C1794       C  0.84789192  0.86712538  0.27438518     0.37300
C1795       C  0.84930027  0.87118640  0.34422085     0.06900
F1796       F  0.92388865  0.92008177  0.33200178    -0.19000
H1797       H  0.93973437  0.93301888  0.28680900     0.16700
F1798       F  0.82173835  0.85072582  0.25629663    -0.22700
H1799       H  0.80672480  0.83753895  0.30247753     0.18500
C1800       C  0.85287730  0.90226065  0.35646282     0.26500
C1801       C  0.85136316  0.90216969  0.38197366    -0.11200
C1802       C  0.84588266  0.87095610  0.39582336    -0.25200
C1803       C  0.83993754  0.83878069  0.38346808     0.37400
C1804       C  0.84186207  0.83907967  0.35783650    -0.26900
F1805       F  0.86003282  0.93367927  0.34373268    -0.19000
H1806       H  0.85541637  0.92701293  0.39095140     0.16700
F1807       F  0.83465406  0.80804886  0.39617305    -0.22700
H1808       H  0.83970619  0.81518265  0.34874743     0.18500
C1809       C  0.56132485  0.96419424  0.26086718    -0.26700
C1810       C  0.54720384  0.94414369  0.23900182     0.06900
C1811       C  0.57568203  0.45073437  0.21574942     0.26500
C1812       C  0.61175321  0.48279849  0.21854066    -0.11200
C1813       C  0.62310426  0.50467769  0.24022708    -0.25200
C1814       C  0.59627875  0.49282866  0.25884043     0.37300
C1815       C  0.50634537  0.92297331  0.23481810     0.06900
F1816       F  0.56544652  0.43169273  0.19424979    -0.19000
H1817       H  0.62939639  0.49121715  0.20282982     0.16700
F1818       F  0.60420717  0.51319448  0.27965392    -0.22700
H1819       H  0.54266938  0.95968786  0.27555338     0.18500
C1820       C  0.98802417  0.90696809  0.24910805     0.26500
C1821       C  0.95069043  0.89559472  0.25122584    -0.11200
C1822       C  0.93594584  0.91279046  0.23647398    -0.25200
C1823       C  0.95641098  0.93308671  0.21535747     0.37400
C1824       C  0.99323338  0.94333548  0.21283307    -0.26900
F1825       F  0.49377907  0.88229793  0.26967375    -0.19000
H1826       H  0.93486801  0.87609517  0.26587597     0.16700
F1827       F  0.94333888  0.94849886  0.19925086    -0.22700
H1828       H  0.51082625  0.44575269  0.19701877     0.18500
C1829       C  0.88732022  0.49261554  0.23452521    -0.26700
C1830       C  0.90568944  0.51426542  0.25536683     0.06900
C1831       C  0.90461946  0.49484247  0.27692416     0.26500
C1832       C  0.95128839  0.98515195  0.25070249    -0.11200
C1833       C  0.91319148  0.95574952  0.24791921    -0.25200
C1834       C  0.88645641  0.96524008  0.25251393     0.37300
C1835       C  0.93019811  0.55632016  0.25344359     0.06900
F1836       F  0.91799378  0.51315602  0.29854153    -0.19000
H1837       H  0.97345509  0.97986319  0.25073595     0.16700
F1838       F  0.84949421  0.93792741  0.25289694    -0.22700
H1839       H  0.88330412  0.50571671  0.21845473     0.18500
C1840       C  0.47324540  0.58496540  0.23186627     0.26500
C1841       C  0.49609813  0.62424372  0.23221597    -0.11200
C1842       C  0.50236797  0.64516380  0.25381298    -0.25200
C1843       C  0.96177809  0.61850914  0.27289817     0.37400
C1844       C  0.93312793  0.57994050  0.27240769    -0.26900
F1845       F  0.46919896  0.56638108  0.21078259    -0.19000
H1846       H  0.51085695  0.63829495  0.21561271     0.16700
F1847       F  0.96594967  0.63711447  0.29386313    -0.22700
H1848       H  0.91435754  0.56810637  0.28770166     0.18500
C1849       C  0.68884363  0.51895174  0.13588595    -0.26700
C1850       C  0.71772969  0.55155474  0.14761159     0.06900
C1851       C  0.74570630  0.58123983  0.13338718     0.26500
C1852       C  0.74385412  0.57879299  0.10781849    -0.11200
C1853       C  0.71391662  0.54690352  0.09599090    -0.25200
C1854       C  0.68674162  0.51659254  0.11037075     0.37300
C1855       C  0.71527107  0.55569595  0.17423068     0.06900
F1856       F  0.77830927  0.10849564  0.14688296    -0.19000
H1857       H  0.76772032  0.10034274  0.09985532     0.16700
F1858       F  0.65729413  0.48523054  0.09986995    -0.22700
H1859       H  0.66675571  0.49596421  0.14651163     0.18500
C1860       C  0.71242917  0.58538821  0.18282708     0.26500
C1861       C  0.70015490  0.58388460  0.20649693    -0.11200
C1862       C  0.68764195  0.55131819  0.22150019    -0.25200
C1863       C  0.69716875  0.52527477  0.21433785     0.37400
C1864       C  0.70987326  0.52696825  0.19065429    -0.26900
F1865       F  0.71770392  0.61390506  0.16759686    -0.19000
H1866       H  0.69799176  0.60725478  0.21202167     0.16700
F1867       F  0.68931017  0.49520837  0.22887277    -0.22700
H1868       H  0.71298983  0.50435276  0.18456440     0.18500
C1869       C  0.56117338  0.72494280  0.14510671    -0.26700
C1870       C  0.54003068  0.73763516  0.15552629     0.06900
C1871       C  0.51951913  0.74739932  0.14010016     0.26500
C1872       C  0.51985680  0.74389040  0.11464667    -0.11200
C1873       C  0.53999742  0.72983476  0.10422644    -0.25200
C1874       C  0.56105474  0.72081652  0.11978510     0.37300
C1875       C  0.53615129  0.73535439  0.18245489     0.06900
F1876       F  0.49876935  0.75970142  0.14967246    -0.19000
H1877       H  0.50354095  0.75122924  0.10311886     0.16700
F1878       F  0.58133682  0.70769320  0.11062285    -0.22700
H1879       H  0.57670028  0.71672367  0.15675512     0.18500
C1880       C  0.50191121  0.70804819  0.19273772     0.26500
C1881       C  0.50086452  0.69546240  0.21671949    -0.11200
C1882       C  0.53412972  0.70911650  0.23066057    -0.25200
C1883       C  0.56643402  0.74270321  0.22218013     0.37400
C1884       C  0.56786635  0.75449390  0.19779824    -0.26900
F1885       F  0.96164384  0.66876161  0.17293307    -0.19000
H1886       H  0.96219830  0.65703428  0.21870892     0.16700
F1887       F  0.59806180  0.76069013  0.23616578    -0.22700
H1888       H  0.59431483  0.77673972  0.19041176     0.18500
C1889       C  0.85319658  0.84790122  0.18892544    -0.26700
C1890       C  0.85162774  0.87262207  0.17183754     0.06900
C1891       C  0.85633556  0.90637021  0.18038690     0.26500
C1892       C  0.86692727  0.91730405  0.20467016    -0.11200
C1893       C  0.87380315  0.89524618  0.22137515    -0.25200
C1894       C  0.86366003  0.85873897  0.21344458     0.37300
C1895       C  0.85029016  0.86634573  0.14492798     0.06900
F1896       F  0.85545224  0.93141396  0.16460696    -0.19000
H1897       H  0.87430524  0.94561843  0.20877543     0.16700
F1898       F  0.86841988  0.83549136  0.22860676    -0.22700
H1899       H  0.84865834  0.82117187  0.18293915     0.18500
C1900       C  0.87607178  0.85980447  0.13418345     0.26500
C1901       C  0.87924901  0.86067776  0.10865527    -0.11200
C1902       C  0.85692671  0.86816046  0.09324598    -0.25200
C1903       C  0.83019748  0.87329167  0.10399099     0.37400
C1904       C  0.82684924  0.87212205  0.12947530    -0.26900
F1905       F  0.89984624  0.85489988  0.14834813    -0.19000
H1906       H  0.89998319  0.85651178  0.10097453     0.16700
F1907       F  0.80806240  0.88076525  0.08998698    -0.22700
H1908       H  0.80664510  0.87702984  0.13721917     0.18500
C1909       C  0.69454276  0.69776274  0.64170230    -0.26700
C1910       C  0.69850197  0.73031410  0.65188983     0.06900
C1911       C  0.70199682  0.75904757  0.63612952     0.26500
C1912       C  0.69994898  0.75434477  0.61067160    -0.11200
C1913       C  0.69408356  0.72081925  0.60046704    -0.25200
C1914       C  0.69214720  0.69285704  0.61633987     0.37300
C1915       C  0.69269828  0.73036829  0.67856533     0.06900
F1916       F  0.70646963  0.79117783  0.64535764    -0.19000
H1917       H  0.70203459  0.77660374  0.59895356     0.16700
F1918       F  0.68669684  0.66012096  0.60748983    -0.22700
H1919       H  0.69126258  0.67503420  0.65350395     0.18500
C1920       C  0.66166334  0.73028739  0.68664901     0.26500
C1921       C  0.64810067  0.71707557  0.71011919    -0.11200
C1922       C  0.66415879  0.70199215  0.72572761    -0.25200
C1923       C  0.69986217  0.71023086  0.71942625     0.37400
C1924       C  0.71320511  0.72286897  0.69565898    -0.26900
F1925       F  0.64193962  0.73897911  0.67105215    -0.19000
H1926       H  0.62337398  0.71643335  0.71512661     0.16700
F1927       F  0.71919671  0.70083004  0.73483960    -0.22700
H1928       H  0.73803954  0.72405494  0.69004422     0.18500
C1929       C  0.66669448  0.72735697  0.85926935    -0.26700
C1930       C  0.69684241  0.73146394  0.84639144     0.06900
C1931       C  0.72757532  0.73571105  0.85967390     0.26500
C1932       C  0.72698742  0.73334153  0.88522467    -0.11200
C1933       C  0.69584019  0.72677805  0.89813182    -0.25200
C1934       C  0.66608582  0.72503645  0.88489892     0.37300
C1935       C  0.69322753  0.72516636  0.81955452     0.06900
F1936       F  0.75766118  0.74079782  0.84787833    -0.19000
H1937       H  0.75061161  0.73554747  0.89487483     0.16700
F1938       F  0.63581229  0.71973058  0.89655499    -0.22700
H1939       H  0.64263756  0.72384573  0.84940643     0.18500
C1940       C  0.69623167  0.69604251  0.81008624     0.26500
C1941       C  0.68485092  0.68401782  0.78615848    -0.11200
C1942       C  0.66733224  0.69852648  0.77148534    -0.25200
C1943       C  0.67123904  0.73251113  0.77939318     0.37400
C1944       C  0.68266328  0.74475375  0.80361978    -0.26900
F1945       F  0.70669803  0.67648602  0.82459955    -0.19000
H1946       H  0.68751958  0.66120441  0.78000769     0.16700
F1947       F  0.65951427  0.75093636  0.76486197    -0.22700
H1948       H  0.68151036  0.76829954  0.81029177     0.18500
C1949       C  0.82799145  0.50333493  0.63717789    -0.26700
C1950       C  0.83433690  0.53507672  0.65004576     0.06900
C1951       C  0.83831177  0.56620775  0.63684524     0.26500
C1952       C  0.83817384  0.56628014  0.61115794    -0.11200
C1953       C  0.83418527  0.53540034  0.59828424    -0.25200
C1954       C  0.82795156  0.50336878  0.61163794     0.37300
C1955       C  0.84409650  0.53781007  0.67647001     0.06900
F1956       F  0.84503760  0.59755427  0.64870843    -0.19000
H1957       H  0.84270280  0.59118481  0.60137190     0.16700
F1958       F  0.78851715  0.95414969  0.59428691    -0.22700
H1959       H  0.78975186  0.95286195  0.64173428     0.18500
C1960       C  0.82432390  0.54253134  0.69480885     0.26500
C1961       C  0.83400598  0.54269341  0.71971422    -0.11200
C1962       C  0.86384412  0.53847878  0.72668384    -0.25200
C1963       C  0.88386723  0.53482440  0.70759187     0.37400
C1964       C  0.87405392  0.53453481  0.68321202    -0.26900
F1965       F  0.79517394  0.54597050  0.68870041    -0.19000
H1966       H  0.81792193  0.54587026  0.73334337     0.16700
F1967       F  0.88974124  0.99337492  0.70972472    -0.22700
H1968       H  0.89000480  0.53144078  0.66936429     0.18500
C1969       C  0.80642913  0.99350477  0.81041046    -0.26700
C1970       C  0.83487418  0.55033418  0.82075514     0.06900
C1971       C  0.85546210  0.58244572  0.80558092     0.26500
C1972       C  0.86276569  0.57812368  0.78143326    -0.11200
C1973       C  0.85149538  0.54184795  0.77260504    -0.25200
C1974       C  0.81115431  0.98660591  0.78621071     0.37300
C1975       C  0.83830807  0.55344783  0.84791543     0.06900
F1976       F  0.87158722  0.61795149  0.81477817    -0.19000
H1977       H  0.88163532  0.60342508  0.77097157     0.16700
F1978       F  0.79150037  0.95022296  0.77821546    -0.22700
H1979       H  0.78878837  0.96949535  0.82221677     0.18500
C1980       C  0.80217246  0.01773410  0.86300415     0.26500
C1981       C  0.81239664  0.52990266  0.88839700    -0.11200
C1982       C  0.84831718  0.55008327  0.89918762    -0.25200
C1983       C  0.87907543  0.57333268  0.88414108     0.37400
C1984       C  0.87402724  0.57482515  0.85885250    -0.26900
F1985       F  0.76661696  0.99732841  0.85411038    -0.19000
H1986       H  0.78454391  0.00544975  0.90035503     0.16700
F1987       F  0.91420856  0.59415358  0.89370778    -0.22700
H1988       H  0.89844140  0.59149721  0.84765116     0.18500
C1989       C  0.97709373  0.60012663  0.78040574    -0.26700
C1990       C  0.99693128  0.61854023  0.75920612     0.06900
C1991       C  0.97723027  0.62005790  0.73879582     0.26500
C1992       C  0.93834586  0.59848546  0.73838415    -0.11200
C1993       C  0.91796225  0.57208513  0.75741909    -0.25200
C1994       C  0.93808788  0.57905700  0.77993837     0.37300
C1995       C  0.52429012  0.63604675  0.75264459     0.06900
F1996       F  0.99559727  0.64160053  0.71892803    -0.19000
H1997       H  0.92484585  0.60170716  0.72240158     0.16700
F1998       F  0.92086955  0.56872554  0.80180144    -0.22700
H1999       H  0.99158897  0.60135177  0.79726887     0.18500
C2000       C  0.54889508  0.65907508  0.77134060     0.26500
C2001       C  0.58714103  0.67383260  0.76987726    -0.11200
C2002       C  0.60241159  0.66742114  0.74918595    -0.25200
C2003       C  0.57711522  0.64559796  0.72993913     0.37400
C2004       C  0.53894669  0.63017323  0.73180890    -0.26900
F2005       F  0.53587323  0.66653840  0.79143696    -0.19000
H2006       H  0.60363771  0.68804449  0.78593060     0.16700
F2007       F  0.58905295  0.63689118  0.70981955    -0.22700
H2008       H  0.52052327  0.61192719  0.71730838     0.18500
C2009       C  0.95751443  0.84166740  0.62976669    -0.26700
C2010       C  0.49113159  0.83929910  0.64482465     0.06900
C2011       C  0.52670938  0.85389281  0.63511998     0.26500
C2012       C  0.53191326  0.85868798  0.60973097    -0.11200
C2013       C  0.50165283  0.84868537  0.59366093    -0.25200
C2014       C  0.96180291  0.84424993  0.60436674     0.37300
C2015       C  0.48680411  0.84332165  0.67119453     0.06900
F2016       F  0.55677792  0.86603446  0.65025494    -0.19000
H2017       H  0.55981621  0.87144986  0.60271771     0.16700
F2018       F  0.93298480  0.83892947  0.58990499    -0.22700
H2019       H  0.93156538  0.83581990  0.63724556     0.18500
C2020       C  0.98163167  0.88332338  0.67949159     0.26500
C2021       C  0.98393182  0.89165732  0.70414132    -0.11200
C2022       C  0.48739037  0.86009193  0.72161475    -0.25200
C2023       C  0.49399721  0.83176627  0.71438634     0.37400
C2024       C  0.49453706  0.82431829  0.68943938    -0.26900
F2025       F  0.97898173  0.90632722  0.66279625    -0.19000
H2026       H  0.98363910  0.91655554  0.70871766     0.16700
F2027       F  0.50031993  0.81121254  0.73088499    -0.22700
H2028       H  0.50135325  0.80389005  0.68432911     0.18500
C2029       C  0.52815652  0.83845142  0.80001423    -0.26700
C2030       C  0.50105348  0.82949195  0.81751887     0.06900
C2031       C  0.97600410  0.83562876  0.81128953     0.26500
C2032       C  0.96903786  0.84389612  0.78777799    -0.11200
C2033       C  0.49187268  0.84905697  0.76887039    -0.25200
C2034       C  0.52330108  0.84698252  0.77576151     0.37300
C2035       C  0.51095491  0.83510745  0.84391223     0.06900
F2036       F  0.95044806  0.82704145  0.82881471    -0.19000
H2037       H  0.94286162  0.84166055  0.78558795     0.16700
F2038       F  0.55229743  0.85936552  0.76036083    -0.22700
H2039       H  0.55455955  0.84227435  0.80561819     0.18500
C2040       C  0.49253276  0.80539489  0.86103360     0.26500
C2041       C  0.49733003  0.81317743  0.88618775    -0.11200
C2042       C  0.52012321  0.85077225  0.89462847    -0.25200
C2043       C  0.53932286  0.88024906  0.87732593     0.37400
C2044       C  0.53484142  0.87233673  0.85231003    -0.26900
F2045       F  0.46926118  0.76911014  0.85339005    -0.19000
H2046       H  0.48246177  0.78985424  0.89903985     0.16700
F2047       F  0.56165363  0.91694305  0.88443244    -0.22700
H2048       H  0.06734262  0.90347783  0.83984396     0.18500
C2049       C  0.94781971  0.94006750  0.76196234    -0.26700
C2050       C  0.91032284  0.91058840  0.76058180     0.06900
C2051       C  0.90117497  0.87432308  0.75410920     0.26500
C2052       C  0.92960948  0.86771999  0.75019293    -0.11200
C2053       C  0.96794904  0.89661315  0.75360904    -0.25200
C2054       C  0.97616162  0.93383930  0.75809692     0.37300
C2055       C  0.88227415  0.92050436  0.76374206     0.06900
F2056       F  0.86497147  0.84530185  0.75190403    -0.19000
H2057       H  0.92172228  0.83941655  0.74501787     0.16700
F2058       F  0.01075086  0.96557440  0.75687053    -0.22700
H2059       H  0.95535791  0.96890726  0.76516036     0.18500
C2060       C  0.88604409  0.94315196  0.78349357     0.26500
C2061       C  0.88690765  0.49302775  0.78113143    -0.11200
C2062       C  0.85801865  0.97073175  0.75872744    -0.25200
C2063       C  0.84312410  0.93867458  0.74311324     0.37400
C2064       C  0.85721579  0.91515275  0.74476168    -0.26900
F2065       F  0.91712282  0.46750964  0.80343335    -0.19000
H2066       H  0.88835913  0.50737672  0.79747943     0.16700
F2067       F  0.81619054  0.93044498  0.72599992    -0.22700
H2068       H  0.85080881  0.89505960  0.73032859     0.18500
C2069       C  0.58285524  0.96865518  0.77305139    -0.26700
C2070       C  0.59415212  0.51584939  0.74866218     0.06900
C2071       C  0.58379803  0.97180830  0.72901403     0.26500
C2072       C  0.55569696  0.93326869  0.72817371    -0.11200
C2073       C  0.53576699  0.91351164  0.74942701    -0.25200
C2074       C  0.55191221  0.93141045  0.77224480     0.37300
C2075       C  0.61314900  0.55799634  0.75011871     0.06900
F2076       F  0.58571903  0.51605136  0.70484937    -0.19000
H2077       H  0.54754828  0.92084561  0.71024482     0.16700
F2078       F  0.53471859  0.91556208  0.79372614    -0.22700
H2079       H  0.59853655  0.50698634  0.78742309     0.18500
C2080       C  0.60441441  0.57408334  0.76903254     0.26500
C2081       C  0.61669064  0.61224181  0.76830878    -0.11200
C2082       C  0.63658634  0.63616989  0.74826413    -0.25200
C2083       C  0.64542580  0.61979467  0.72924262     0.37400
C2084       C  0.63535108  0.58191194  0.73094153    -0.26900
F2085       F  0.58143272  0.55268458  0.78748828    -0.19000
H2086       H  0.60879763  0.62299868  0.78324094     0.16700
F2087       F  0.66067745  0.63814428  0.70794758    -0.22700
H2088       H  0.64332030  0.57079710  0.71630699     0.18500
loop_ 
_geom_bond_atom_site_label_1 
_geom_bond_atom_site_label_2 
_geom_bond_distance 
_geom_bond_site_symmetry_2 
_ccdc_geom_bond_type 
C1          C456   1.561   1_455  S
C1          C467   1.565       .  S
C1          C507   1.568       .  S
C1         C1531   1.569   1_455  S
C2          C396   1.560       .  S
C2          C407   1.554       .  S
C2          C427   1.585       .  S
C2         C1018   1.581   1_545  S
C3          C356   1.553       .  S
C3          C376   1.557       .  S
C3          C436   1.563       .  S
C3          C516   1.566       .  S
O4            C7   1.262   1_554  A
O4           Cd9   2.491       .  S
C5           O14   1.263   1_556  A
C5           O10   1.264       .  A
C5           C31   1.473       .  S
O6           C12   1.265   1_554  A
O6           Cd9   2.469       .  S
C7           O15   1.265       .  A
C7           C20   1.479       .  S
C8           O13   1.267       .  A
C8           O11   1.265       .  A
C8          C336   1.486       .  S
Cd9          O16   2.476   1_554  S
Cd9          O15   2.527   1_554  S
Cd9          O14   2.479       .  S
Cd9          O10   2.506   1_554  S
Cd9          O13   2.465       .  S
Cd9          O11   2.485       .  S
C12          O16   1.264       .  A
C12          C60   1.466       .  S
O17          C20   1.263   1_554  A
O17       Cd1066   2.494   1_554  S
C18          O27   1.268       .  A
C18          O23   1.267   1_556  A
C18          C70   1.476   1_556  S
O19          C25   1.261       .  A
O19         Cd22   2.470       .  S
C20          O28   1.265       .  A
C21          O26   1.263       .  A
C21          O24   1.266       .  A
C21         C476   1.486       .  S
Cd22         O29   2.505   1_556  S
Cd22         O27   2.497       .  S
Cd22         O23   2.481   1_556  S
Cd22         O26   2.462       .  S
Cd22         O24   2.500       .  S
Cd22       O1061   2.518   1_456  S
Cd22       O1072   2.514   1_455  S
C25          O29   1.265   1_556  A
C25          C51   1.471   1_556  S
O28       Cd1066   2.524       .  S
O30          C33   1.266       .  A
O30         Cd35   2.488       .  S
C31          O40   1.263   1_556  A
C31          O36   1.264       .  A
O32          C38   1.266       .  A
O32         Cd35   2.489       .  S
C33          O41   1.264   1_556  A
C33          C46   1.472   1_556  S
C34          O39   1.265       .  A
C34          O37   1.268       .  A
C34         C416   1.487       .  S
Cd35         O42   2.468       .  S
Cd35         O41   2.475   1_556  S
Cd35         O39   2.462       .  S
Cd35         O37   2.491       .  S
Cd35        O562   2.492   1_556  S
Cd35        O558   2.503   1_545  S
O36        Cd557   2.507       .  S
C38          O42   1.263       .  A
C38          C77   1.469       .  S
O40        Cd557   2.483   1_554  S
O43          C46   1.265   1_556  A
O43       Cd1092   2.480   1_556  S
C44          O53   1.263       .  A
C44          O49   1.262   1_554  A
C44          C59   1.474   1_554  S
O45          C51   1.264       .  A
O45         Cd48   2.496       .  S
C46          O54   1.267       .  A
C47          O52   1.263       .  A
C47          O50   1.269       .  A
C47         C307   1.490       .  S
Cd48         O55   2.476   1_554  S
Cd48         O53   2.496       .  S
Cd48         O49   2.504   1_554  S
Cd48         O52   2.471       .  S
Cd48         O50   2.503       .  S
Cd48       O1087   2.484   1_454  S
Cd48       O1098   2.495   1_455  S
C51          O55   1.264   1_554  A
O54       Cd1092   2.482       .  S
O56          C59   1.266       .  A
O56         Cd61   2.499       .  S
C57          O66   1.264       .  A
C57          O62   1.264   1_556  A
C57          C72   1.476       .  S
O58          C64   1.264       .  A
O58         Cd61   2.480       .  S
C59          O67   1.265   1_556  A
C60          O65   1.265       .  A
C60          O63   1.263       .  A
Cd61         O68   2.488       .  S
Cd61         O67   2.482   1_556  S
Cd61         O66   2.496       .  S
Cd61         O62   2.499   1_556  S
Cd61         O65   2.478       .  S
Cd61         O63   2.457       .  S
C64          O68   1.265       .  A
C64         C367   1.486       .  S
O69          C72   1.266   1_554  A
O69         Cd74   2.498       .  S
C70          O79   1.263       .  A
C70         O597   1.264   1_554  A
O71          C77   1.263       .  A
O71         Cd74   2.485   1_556  S
C72          O80   1.265       .  A
C73          O78   1.265       .  A
C73          O76   1.267       .  A
C73         C287   1.486       .  S
Cd74         O81   2.491       .  S
Cd74         O80   2.492   1_554  S
Cd74         O75   2.506   1_554  S
Cd74         O78   2.454       .  S
Cd74         O76   2.504       .  S
Cd74        O601   2.479   1_545  S
O75         C592   1.265   1_545  A
C77          O81   1.262   1_556  A
O79        Cd596   2.494       .  S
C82         C227   1.554       .  S
C82         C256   1.560       .  S
C82         C267   1.563       .  S
C82         C327   1.560       .  S
C83         C187   1.552       .  S
C83         C216   1.569       .  S
C83         C276   1.566   1_455  S
C83         C316   1.565       .  S
C84         C176   1.560       .  S
C84         C207   1.565       .  S
C84         C247   1.564       .  S
C84         C296   1.557       .  S
O85          C88   1.263       .  A
O85         Cd90   2.501       .  S
C86          O95   1.266       .  A
C86          O91   1.263       .  A
C86         C153   1.475       .  S
O87          C93   1.264       .  A
O87         Cd90   2.469       .  S
C88          O96   1.263       .  A
C88          C99   1.474       .  S
C89          O94   1.264       .  A
C89          O92   1.262       .  A
C89         C119   1.467       .  S
Cd90         O97   2.474       .  S
Cd90         O96   2.495       .  S
Cd90         O95   2.504       .  S
Cd90         O91   2.486       .  S
Cd90         O94   2.476       .  S
Cd90         O92   2.482       .  S
C93          O97   1.269       .  A
C93         C236   1.484       .  S
O98         C101   1.265       .  A
O98        Cd103   2.493       .  S
C99         O108   1.265       .  A
C99         O104   1.265       .  A
O100        C106   1.261       .  A
O100       Cd103   2.488       .  S
C101        O109   1.265       .  A
C101        C127   1.473       .  S
C102        O107   1.265   1_455  A
C102        O105   1.268       .  A
C102        C447   1.484       .  S
Cd103       O110   2.495   1_455  S
Cd103       O109   2.485       .  S
Cd103       O107   2.479   1_455  S
Cd103       O105   2.473       .  S
Cd103      O1152   2.510   1_455  S
Cd103      O1148   2.490   1_455  S
O104      Cd1147   2.496       .  S
C106        O110   1.263   1_455  A
C106        C145   1.471       .  S
O108      Cd1147   2.488       .  S
O111        C114   1.266       .  A
O111       Cd116   2.483       .  S
C112        O121   1.264       .  A
C112        O117   1.262       .  A
C112        C125   1.474       .  S
O113        C119   1.264       .  A
O113       Cd116   2.492       .  S
C114        O122   1.266       .  A
C114        C140   1.473       .  S
C115        O120   1.265       .  A
C115        O118   1.267       .  A
C115        C347   1.481       .  S
Cd116       O123   2.468       .  S
Cd116       O122   2.487       .  S
Cd116       O121   2.501       .  S
Cd116       O117   2.495       .  S
Cd116       O120   2.469       .  S
Cd116       O118   2.464       .  S
C119        O123   1.261       .  A
O124        C649   1.266       .  A
O124       Cd129   2.500   1_565  S
C125        O134   1.265       .  A
C125        O130   1.266       .  A
O126        C132   1.264       .  A
O126       Cd129   2.481       .  S
C127        O135   1.265       .  A
C127        O646   1.266       .  A
C128        O133   1.263       .  A
C128        O131   1.265       .  A
C128        C167   1.489       .  S
Cd129       O136   2.497       .  S
Cd129       O134   2.490       .  S
Cd129       O130   2.495       .  S
Cd129       O133   2.479       .  S
Cd129       O131   2.507       .  S
Cd129       O657   2.496       .  S
C132        O136   1.265       .  A
C132        C158   1.474       .  S
O135       Cd651   2.480       .  S
O137        C140   1.264       .  A
O137       Cd142   2.494       .  S
C138        O147   1.263       .  A
C138        O143   1.265       .  A
C138        C151   1.472       .  S
O139        C145   1.263   1_655  A
O139       Cd142   2.488   1_655  S
C140        O148   1.264       .  A
C141        O146   1.266       .  A
C141        O144   1.266       .  A
C141        C196   1.487       .  S
Cd142       O149   2.492       .  S
Cd142       O148   2.493       .  S
Cd142       O146   2.491       .  S
Cd142       O144   2.457       .  S
Cd142      O1191   2.496   1_455  S
Cd142      O1187   2.515   1_455  S
O143      Cd1186   2.504       .  S
C145        O149   1.264       .  A
O147      Cd1186   2.473       .  S
O150        C153   1.266       .  A
O150       Cd677   2.489       .  S
C151        O160   1.266       .  A
C151        O156   1.265       .  A
O152        C158   1.263       .  A
O152       Cd155   2.502       .  S
C153        O161   1.265       .  A
C154        O159   1.264       .  A
C154        O157   1.266       .  A
C154        C387   1.486       .  S
Cd155       O162   2.495       .  S
Cd155       O160   2.498       .  S
Cd155       O156   2.471       .  S
Cd155       O159   2.458       .  S
Cd155       O157   2.498       .  S
Cd155       O672   2.498   1_545  S
Cd155       O683   2.517   1_545  S
C158        O162   1.264       .  A
O161       Cd677   2.489       .  S
C163        C164   1.406       .  A
C163        C168   1.403       .  A
C163        H173   1.084       .  S
C164        C169   1.488       .  S
C164        C165   1.405       .  A
C165        C166   1.401       .  A
C165        F170   1.357       .  S
C166        C167   1.408       .  A
C166        H171   1.083       .  S
C167        C168   1.410       .  A
C168        F694   1.357       .  S
C169        C174   1.403       .  A
C169        C178   1.406       .  A
F172        C690   1.358       .  S
C174        C175   1.396       .  A
C174        F179   1.358   1_545  S
C175        C176   1.415       .  A
C175        H180   1.081   1_545  S
C176        C177   1.415       .  A
C177        C178   1.406       .  A
C177        F181   1.357       .  S
C178        H182   1.083       .  S
C183        C184   1.405       .  A
C183        C188   1.404       .  A
C183       H1237   1.083   1_455  S
C184        C189   1.484       .  S
C184        C185   1.402       .  A
C185        C186   1.397       .  A
C185        F190   1.358       .  S
C186        C187   1.415       .  A
C186        H191   1.081       .  S
C187        C188   1.414       .  A
C188       F1236   1.357   1_455  S
C189        C194   1.407       .  A
C189        C198   1.403       .  A
F192       C1232   1.355       .  S
H193       C1227   1.083       .  S
C194        C195   1.404       .  A
C194        F199   1.357       .  S
C195        C196   1.409       .  A
C195        H200   1.083       .  S
C196        C197   1.409       .  A
C197        C198   1.397       .  A
C197        F201   1.357   1_455  S
C198        H202   1.084   1_455  S
C203        C204   1.401       .  A
C203        C208   1.393       .  A
C203        H213   1.082       .  S
C204        C209   1.488       .  S
C204        C205   1.405       .  A
C205        C206   1.396       .  A
C205        F210   1.358       .  S
C206        C207   1.417       .  A
C206        H211   1.076       .  S
C207        C208   1.421       .  A
C208        F212   1.357       .  S
C209        C214   1.404       .  A
C209        C218   1.400       .  A
C214        C215   1.397       .  A
C214        F219   1.357       .  S
C215        C216   1.417       .  A
C215        H220   1.075       .  S
C216        C217   1.423       .  A
C217        C218   1.392       .  A
C217        F221   1.355       .  S
C218        H222   1.082       .  S
C223        C224   1.406       .  A
C223        C228   1.411       .  A
C223        H233   1.083       .  S
C224        C229   1.482       .  S
C224        C225   1.397       .  A
C225        C226   1.385       .  A
C225        F230   1.359       .  S
C226        C227   1.417       .  A
C226        H231   1.083       .  S
C227        C228   1.418       .  A
C228        F232   1.355       .  S
C229        C234   1.407       .  A
C229        C238   1.402       .  A
C234        C235   1.395       .  A
C234        F239   1.358       .  S
C235        C236   1.402       .  A
C235        H240   1.083       .  S
C236        C237   1.413       .  A
C237        C238   1.404       .  A
C237        F241   1.357       .  S
C238        H242   1.083       .  S
C243        C244   1.399       .  A
C243        C770   1.388       .  A
C243        H253   1.083       .  S
C244        C249   1.489       .  S
C244        C767   1.407       .  A
C245        C246   1.403       .  A
C245        C766   1.403       .  A
C245        F250   1.357       .  S
C246        C247   1.419   1_565  A
C246        H251   1.078   1_565  S
C247        C248   1.421       .  A
C248        C765   1.389   1_545  A
C248        F252   1.357       .  S
C249       C1298   1.401   1_455  A
C249       C1302   1.401   1_455  A
C254        C255   1.397       .  A
C254       C1293   1.403       .  A
C254       F1303   1.358       .  S
C255        C256   1.414       .  A
C255        H260   1.080       .  S
C256        C257   1.420       .  A
C257        C258   1.391       .  A
C257        F261   1.356       .  S
C258       C1293   1.398       .  A
C258       H1828   1.084       .  S
F259       C1298   1.357       .  S
H262       C1824   1.083   1_455  S
C263        C264   1.395       .  A
C263        C790   1.399   1_545  A
C263        H273   1.083       .  S
C264        C269   1.460       .  S
C264        C265   1.397       .  A
C265        C788   1.383   1_545  A
C265        F270   1.359       .  S
C266        C267   1.416       .  A
C266        C787   1.387       .  A
C266        H271   1.078       .  S
C267        C268   1.423       .  A
C268        C785   1.400       .  A
C268        F272   1.357       .  S
C269        C278   1.395       .  A
C269       C1318   1.394       .  A
C274        C275   1.385       .  A
C274       C1313   1.395       .  A
C274        F279   1.358       .  S
C275        C276   1.418       .  A
C275        H280   1.082   1_655  S
C276       C1321   1.428       .  A
C277        C278   1.398       .  A
C277       C1320   1.426       .  A
C277        F281   1.354       .  S
C278        H282   1.084       .  S
C283        C284   1.406       .  A
C283        C288   1.397       .  A
C283        H293   1.083       .  S
C284        C289   1.494       .  S
C284        C285   1.411       .  A
C285        C286   1.404       .  A
C285        F812   1.357       .  S
C286        C287   1.406       .  A
C286        H813   1.083       .  S
C287        C288   1.408       .  A
C288        F292   1.358   1_545  S
C289        C294   1.406       .  A
C289        C298   1.408       .  A
F290        C807   1.357       .  S
H291        C808   1.083       .  S
C294        C295   1.397       .  A
C294        F299   1.357       .  S
C295        C296   1.414       .  A
C295        H300   1.081       .  S
C296        C297   1.414       .  A
C297        C298   1.404       .  A
C297        F301   1.357       .  S
C298        H302   1.083       .  S
C303        C304   1.406       .  A
C303        C308   1.399       .  A
C303        H313   1.084       .  S
C304        C309   1.487       .  S
C304        C305   1.404       .  A
C305        C306   1.405       .  A
C305        F310   1.357       .  S
C306        C307   1.412       .  A
C306        H311   1.083       .  S
C307        C308   1.407       .  A
C308        F312   1.357       .  S
C309        C314   1.402       .  A
C309        C318   1.406       .  A
C314        C315   1.396       .  A
C314       F1363   1.358   1_455  S
C315        C316   1.414       .  A
C315       H1364   1.082   1_455  S
C316        C317   1.417       .  A
C317        C318   1.410       .  A
C317        F321   1.357       .  S
C318        H322   1.083       .  S
F319       C1358   1.358       .  S
H320       C1359   1.081       .  S
C323        C324   1.402       .  A
C323        C328   1.406       .  A
C323        H333   1.083       .  S
C324        C329   1.479       .  S
C324        C325   1.396       .  A
C325        C326   1.393       .  A
C325        F330   1.358       .  S
C326        C327   1.420       .  A
C326        H331   1.075       .  S
C327        C328   1.420       .  A
C328        F332   1.357       .  S
C329        C334   1.406       .  A
C329        C338   1.401       .  A
C334        C335   1.396       .  A
C334        F339   1.358       .  S
C335        C336   1.405       .  A
C335        H340   1.083       .  S
C336        C337   1.413       .  A
C337        C338   1.404       .  A
C337        F341   1.357       .  S
C338        H342   1.083       .  S
C343        C344   1.403       .  A
C343        C348   1.396       .  A
C343        H353   1.084       .  S
C344        C349   1.481       .  S
C344        C345   1.407       .  A
C345        C346   1.401       .  A
C345        F350   1.358       .  S
C346        C347   1.407       .  A
C346        H351   1.083       .  S
C347        C348   1.407       .  A
C348        F352   1.357       .  S
C349        C354   1.400       .  A
C349        C358   1.406       .  A
C354        C355   1.390       .  A
C354        F359   1.358       .  S
C355        C356   1.417       .  A
C355        H360   1.081       .  S
C356        C357   1.413       .  A
C357        C358   1.405       .  A
C357        F361   1.357       .  S
C358        H362   1.083       .  S
C363        C364   1.403       .  A
C363        C368   1.399       .  A
C363        H373   1.084       .  S
C364        C369   1.480       .  S
C364        C365   1.404       .  A
C365        C366   1.400       .  A
C365        F370   1.357       .  S
C366        C367   1.408       .  A
C366        H371   1.083       .  S
C367        C368   1.409       .  A
C368        F372   1.357       .  S
C369        C374   1.401       .  A
C369        C378   1.403       .  A
C374        C375   1.393       .  A
C374        F379   1.358       .  S
C375        C376   1.416       .  A
C375        H380   1.081       .  S
C376        C377   1.416       .  A
C377        C378   1.403       .  A
C377        F381   1.357       .  S
C378        H382   1.083       .  S
C383        C384   1.401   1_565  A
C383        C388   1.398       .  A
C383        H915   1.084       .  S
C384        C389   1.478       .  S
C384        C385   1.404       .  A
C385        C386   1.402       .  A
C385        F390   1.357       .  S
C386        C387   1.408       .  A
C386        H391   1.083       .  S
C387        C388   1.411   1_545  A
C388        F914   1.357       .  S
C389        C394   1.404       .  A
C389        C398   1.394       .  A
F392        C910   1.357       .  S
H393        C905   1.084       .  S
C394        C395   1.407       .  A
C394        F399   1.357       .  S
C395        C396   1.415       .  A
C395        H400   1.081       .  S
C396        C397   1.426       .  A
C397        C398   1.389       .  A
C397        F923   1.360       .  S
C398        H402   1.084       .  S
F401        C919   1.360       .  S
C403        C408   1.401       .  A
C403        C926   1.404       .  A
C403        H413   1.083       .  S
C404        C409   1.488       .  S
C404        C405   1.406       .  A
C404        C925   1.404   1_545  A
C405        C406   1.400       .  A
C405        F410   1.357       .  S
C406        C407   1.414       .  A
C406        H411   1.083       .  S
C407        C930   1.415   1_545  A
C408        C929   1.417       .  A
C408        F412   1.357       .  S
C409        C418   1.407       .  A
C409        C936   1.406       .  A
C414        C931   1.407       .  A
C414        C937   1.405       .  A
C414        F419   1.357       .  S
C415        C416   1.408       .  A
C415        C936   1.400       .  A
C415        H942   1.083       .  S
C416        C417   1.408       .  A
C417        C418   1.400       .  A
C417        F421   1.357       .  S
C418        H422   1.083       .  S
H420        C937   1.083       .  S
C423        C424   1.398       .  A
C423        C428   1.396       .  A
C423        H433   1.083       .  S
C424       C1473   1.478       .  S
C424        C425   1.399       .  A
C425        C426   1.393       .  A
C425        F430   1.358       .  S
C426        C427   1.422       .  A
C426        H431   1.078       .  S
C427        C428   1.425       .  A
C428        F432   1.353       .  S
C429       C1468   1.482   1_455  S
C429        C434   1.404       .  A
C429        C438   1.399       .  A
C434        C435   1.396       .  A
C434        F439   1.357       .  S
C435        C436   1.414       .  A
C435        H440   1.077       .  S
C436        C437   1.421       .  A
C437        C438   1.391       .  A
C437        F441   1.358       .  S
C438        H442   1.083       .  S
C443        C448   1.400       .  A
C443       C1488   1.401       .  A
C443        H453   1.083       .  S
C444        C449   1.480   1_455  S
C444        C445   1.406       .  A
C444       C1487   1.402   1_455  A
C445        C446   1.396       .  A
C445        F450   1.358       .  S
C446        C447   1.404       .  A
C446        H451   1.083       .  S
C447       C1492   1.412   1_455  A
C448       C1491   1.410       .  A
C448        F452   1.357       .  S
C449        C458   1.405       .  A
C449       C1498   1.396       .  A
C454        C455   1.391       .  A
C454       C1493   1.394       .  A
C454        F459   1.358       .  S
C455       C1500   1.424       .  A
C455        H460   1.082       .  S
C456        C457   1.420       .  A
C456       C1499   1.418       .  A
C457        C458   1.410       .  A
C457        F461   1.355       .  S
C458        H462   1.083       .  S
C463        C464   1.403       .  A
C463        C468   1.405       .  A
C463        H473   1.083       .  S
C464        C469   1.482       .  S
C464       C1509   1.399   1_455  A
C465        C466   1.391       .  A
C465       C1508   1.398       .  A
C465        F470   1.358       .  S
C466       C1511   1.418       .  A
C466        H471   1.071       .  S
C467        C468   1.422       .  A
C467       C1510   1.419   1_455  A
C468        F472   1.358       .  S
C469        C474   1.405   1_455  A
C469        C478   1.405       .  A
C474        C475   1.399       .  A
C474        F479   1.358       .  S
C475        C476   1.408   1_655  A
C475        H480   1.083       .  S
C476        C477   1.409       .  A
C477        C478   1.401       .  A
C477        F481   1.357       .  S
C478       H1526   1.084       .  S
H482       C1522   1.083       .  S
C483        C484   1.394       .  A
C483        C488   1.385       .  A
C483        H493   1.085       .  S
C484        C489   1.475       .  S
C484        C485   1.399       .  A
C485        C486   1.402       .  A
C485        F490   1.357       .  S
C486        C487   1.424       .  A
C486        H491   1.083       .  S
C487       C1045   1.578       .  S
C487        C488   1.427       .  A
C488        F492   1.349       .  S
C489        C494   1.400       .  A
C489        C498   1.397       .  A
C494       C1017   1.393       .  A
C494       F1021   1.357       .  S
C495       C1016   1.391       .  A
C495       C1018   1.413       .  A
C495        H500   1.068       .  S
C496        C524   1.582       .  S
C496        C497   1.430       .  A
C496       C1017   1.411       .  A
C497        C498   1.399       .  A
C497        F501   1.357       .  S
C498        H502   1.083       .  S
F499       C1016   1.358       .  S
C503        C508   1.399       .  A
C503       C1026   1.409       .  A
C503       H1035   1.081       .  S
C504        C509   1.509       .  S
C504       C1025   1.409   1_545  A
C504       C1027   1.413   1_545  A
C505        C506   1.393       .  A
C505       C1026   1.413       .  A
C505       F1032   1.355       .  S
C506        C507   1.413       .  A
C506        H511   1.077       .  S
C507        C508   1.421       .  A
C508        F512   1.357       .  S
C509        C514   1.412       .  A
C509        C518   1.411       .  A
F510       C1027   1.355       .  S
H513       C1025   1.081       .  S
C514        C515   1.387       .  A
C514        F519   1.356       .  S
C515        C516   1.414       .  A
C515        H520   1.083       .  S
C516        C517   1.418       .  A
C517        C518   1.404       .  A
C517        F521   1.353       .  S
C518        H522   1.079       .  S
C523        C978   1.560       .  S
C523        C989   1.572       .  S
C523       C2053   1.573       .  S
C523       C1029   1.569   1_655  S
C524        C918   1.557       .  S
C524        C929   1.557       .  S
C524        C949   1.591       .  S
C525        C878   1.560       .  S
C525        C898   1.556       .  S
C525        C958   1.568       .  S
C525       C1038   1.567       .  S
O526        C529   1.263   1_554  A
O526       Cd531   2.498       .  S
C527        O536   1.266   1_556  A
C527        O532   1.265       .  A
C527        C553   1.472       .  S
O528        C534   1.265       .  A
O528       Cd531   2.474       .  S
C529        O537   1.264       .  A
C529        C542   1.479       .  S
C530        O535   1.268       .  A
C530        O533   1.263       .  A
C530        C858   1.484       .  S
Cd531       O538   2.470       .  S
Cd531       O537   2.520   1_554  S
Cd531       O536   2.486       .  S
Cd531       O532   2.483   1_554  S
Cd531       O535   2.481       .  S
Cd531       O533   2.464       .  S
C534        O538   1.263       .  A
C534        C582   1.466   1_554  S
O539        C542   1.264   1_554  A
O539      Cd1588   2.491   1_554  S
C540        O549   1.266       .  A
C540        O545   1.265   1_556  A
C540        C592   1.474       .  S
O541        C547   1.264       .  A
O541       Cd544   2.494       .  S
C542        O550   1.266       .  A
C543        O548   1.265       .  A
C543        O546   1.267       .  A
C543        C998   1.485       .  S
Cd544      O1583   2.502   1_456  S
Cd544       O551   2.481       .  S
Cd544      O1594   2.519   1_455  S
Cd544       O549   2.505       .  S
Cd544       O545   2.483   1_556  S
Cd544       O548   2.456       .  S
Cd544       O546   2.487       .  S
C547        O551   1.265       .  A
C547        C573   1.472   1_556  S
O550      Cd1588   2.516       .  S
O552        C555   1.265       .  A
O552       Cd557   2.492       .  S
C553        O562   1.262   1_566  A
C553        O558   1.263       .  A
O554        C560   1.265       .  A
O554       Cd557   2.481       .  S
C555        O563   1.264   1_556  A
C555        C568   1.476   1_556  S
C556        O561   1.265       .  A
C556        O559   1.267       .  A
C556        C938   1.488       .  S
Cd557       O564   2.490       .  S
Cd557       O563   2.504   1_556  S
Cd557       O561   2.487       .  S
Cd557       O559   2.472       .  S
C560        O564   1.265       .  A
C560        C599   1.473   1_556  S
O565        C568   1.264   1_556  A
O565      Cd1614   2.478   1_556  S
C566        O575   1.267       .  A
C566        O571   1.266       .  A
C566        C581   1.477   1_554  S
O567        C573   1.261       .  A
O567       Cd570   2.473       .  S
C568        O576   1.267       .  A
C569        O574   1.262       .  A
C569        O572   1.265       .  A
C569        C829   1.482       .  S
Cd570      O1609   2.496   1_454  S
Cd570       O577   2.511   1_554  S
Cd570      O1620   2.489   1_455  S
Cd570       O575   2.499       .  S
Cd570       O571   2.489       .  S
Cd570       O574   2.461       .  S
Cd570       O572   2.498       .  S
C573        O577   1.266   1_554  A
O576      Cd1614   2.506       .  S
O578        C581   1.265       .  A
O578       Cd583   2.492       .  S
C579        O588   1.265       .  A
C579        O584   1.267   1_556  A
C579        C594   1.476   1_556  S
O580        C586   1.262       .  A
O580       Cd583   2.457       .  S
C581        O589   1.265   1_556  A
C582        O587   1.265       .  A
C582        O585   1.264       .  A
Cd583       O590   2.491       .  S
Cd583       O589   2.499   1_556  S
Cd583       O588   2.487       .  S
Cd583       O584   2.498   1_556  S
Cd583       O587   2.476       .  S
Cd583       O585   2.473       .  S
C586        O590   1.264       .  A
C586        C889   1.482       .  S
O591        C594   1.264       .  A
O591       Cd596   2.492       .  S
C592        O601   1.263   1_556  A
O593        C599   1.265       .  A
O593       Cd596   2.503       .  S
C594        O602   1.266   1_554  A
C595        O600   1.266       .  A
C595        O598   1.265       .  A
C595        C809   1.479       .  S
Cd596       O603   2.485       .  S
Cd596       O602   2.501   1_554  S
Cd596       O597   2.508   1_554  S
Cd596       O600   2.470       .  S
Cd596       O598   2.471       .  S
C599        O603   1.263       .  A
C604        C749   1.555       .  S
C604        C778   1.563       .  S
C604        C789   1.559       .  S
C604        C849   1.560       .  S
C605        C709   1.557       .  S
C605        C738   1.564       .  S
C605        C798   1.568   1_455  S
C605        C838   1.562       .  S
C606        C698   1.555       .  S
C606        C729   1.565       .  S
C606        C769   1.560       .  S
C606        C818   1.549       .  S
O607        C610   1.266       .  A
O607       Cd612   2.524       .  S
C608        O617   1.264       .  A
C608        O613   1.267       .  A
C608        C675   1.481       .  S
O609        C615   1.265       .  A
O609       Cd612   2.490       .  S
C610        O618   1.264       .  A
C610        C621   1.484       .  S
C611        O616   1.262       .  A
C611        O614   1.261       .  A
C611        C641   1.470       .  S
Cd612       O619   2.478       .  S
Cd612       O618   2.515       .  S
Cd612       O617   2.504       .  S
Cd612       O613   2.511       .  S
Cd612       O616   2.503       .  S
Cd612       O614   2.488       .  S
C615        O619   1.267       .  A
C615        C758   1.483       .  S
O620        C623   1.265       .  A
O620       Cd625   2.500       .  S
C621        O630   1.267       .  A
C621        O626   1.266       .  A
O622        C628   1.263       .  A
O622       Cd625   2.491       .  S
C623        O631   1.265       .  A
C623        C649   1.477       .  S
C624        O629   1.263   1_455  A
C624        O627   1.265       .  A
C624        C969   1.485   1_455  S
Cd625       O632   2.487   1_455  S
Cd625       O631   2.500       .  S
Cd625      O1674   2.493   1_455  S
Cd625      O1670   2.486   1_455  S
Cd625       O629   2.475   1_455  S
Cd625       O627   2.493       .  S
O626      Cd1669   2.510       .  S
C628        O632   1.264   1_455  A
C628        C667   1.471       .  S
O630      Cd1669   2.511       .  S
O633        C636   1.263       .  A
O633       Cd638   2.507       .  S
C634        O643   1.265       .  A
C634        O639   1.264       .  A
C634        C647   1.470       .  S
O635        C641   1.264       .  A
O635       Cd638   2.471       .  S
C636        O644   1.262       .  A
C636        C662   1.474       .  S
C637        O642   1.265       .  A
C637        O640   1.266       .  A
C637        C869   1.483       .  S
Cd638       O645   2.487       .  S
Cd638       O644   2.493       .  S
Cd638       O643   2.481       .  S
Cd638       O639   2.483       .  S
Cd638       O642   2.473       .  S
Cd638       O640   2.482       .  S
C641        O645   1.265       .  A
O646       Cd651   2.489       .  S
C647        O656   1.262       .  A
C647        O652   1.263       .  A
O648        C654   1.264       .  A
O648       Cd651   2.469       .  S
C649        O657   1.265   1_565  A
C650        O655   1.265       .  A
C650        O653   1.267       .  A
C650        C689   1.487       .  S
Cd651       O658   2.474       .  S
Cd651       O656   2.481       .  S
Cd651       O652   2.493       .  S
Cd651       O655   2.484       .  S
Cd651       O653   2.477       .  S
C654        O658   1.264       .  A
C654        C680   1.466       .  S
O659        C662   1.263       .  A
O659       Cd664   2.501       .  S
C660        O669   1.264       .  A
C660        O665   1.265       .  A
C660        C673   1.472       .  S
O661        C667   1.264   1_655  A
O661       Cd664   2.476   1_655  S
C662        O670   1.263       .  A
C663        O668   1.266       .  A
C663        O666   1.266   1_455  A
C663        C718   1.488       .  S
Cd664       O671   2.485       .  S
Cd664       O670   2.495       .  S
Cd664      O1713   2.485   1_455  S
Cd664      O1709   2.489   1_455  S
Cd664       O668   2.499       .  S
Cd664       O666   2.465   1_455  S
O665      Cd1708   2.498       .  S
C667        O671   1.265       .  A
O669      Cd1708   2.477       .  S
O672        C675   1.263       .  A
C673        O682   1.265       .  A
C673        O678   1.264       .  A
O674        C680   1.263       .  A
O674       Cd677   2.481       .  S
C675        O683   1.267       .  A
C676        O681   1.265       .  A
C676        O679   1.266       .  A
C676        C909   1.484       .  S
Cd677       O684   2.469       .  S
Cd677       O682   2.500       .  S
Cd677       O678   2.476       .  S
Cd677       O681   2.461       .  S
Cd677       O679   2.495       .  S
C680        O684   1.262       .  A
C685        C686   1.408       .  A
C685        C690   1.396       .  A
C685        H695   1.083       .  S
C686        C691   1.494       .  S
C686        C687   1.408       .  A
C687        C688   1.404       .  A
C687        F692   1.357       .  S
C688        C689   1.409       .  A
C688        H693   1.083       .  S
C689        C690   1.406       .  A
C691        C696   1.406       .  A
C691        C700   1.408       .  A
C696        C697   1.396       .  A
C696        F701   1.358       .  S
C697        C698   1.413       .  A
C697        H702   1.081       .  S
C698        C699   1.412       .  A
C699        C700   1.404       .  A
C699        F703   1.357       .  S
C700        H704   1.082       .  S
C705        C706   1.407   1_655  A
C705        C710   1.406       .  A
C705       H1759   1.083       .  S
C706        C711   1.486       .  S
C706        C707   1.401       .  A
C707        C708   1.395       .  A
C707        F712   1.358       .  S
C708        C709   1.417       .  A
C708        H713   1.081       .  S
C709        C710   1.414   1_455  A
C710       F1758   1.357       .  S
C711        C716   1.407       .  A
C711        C720   1.403   1_455  A
F714       C1754   1.356       .  S
H715       C1749   1.083       .  S
C716        C717   1.405       .  A
C716        F721   1.357       .  S
C717        C718   1.409       .  A
C717        H722   1.083       .  S
C718        C719   1.409   1_455  A
C719        C720   1.397       .  A
C719        F723   1.357       .  S
C720        H724   1.084       .  S
C725        C726   1.398       .  A
C725        C730   1.390       .  A
C725        H735   1.082       .  S
C726        C731   1.488       .  S
C726        C727   1.405       .  A
C727        C728   1.398       .  A
C727        F732   1.357       .  S
C728        C729   1.417       .  A
C728        H733   1.077       .  S
C729        C730   1.424       .  A
C730        F734   1.356       .  S
C731        C736   1.406       .  A
C731        C740   1.401       .  A
C736        C737   1.395       .  A
C736        F741   1.358       .  S
C737        C738   1.415       .  A
C737        H742   1.075       .  S
C738        C739   1.421       .  A
C739        C740   1.392       .  A
C739        F743   1.357       .  S
C740        H744   1.082       .  S
C745        C746   1.405       .  A
C745        C750   1.412       .  A
C745        H755   1.083       .  S
C746        C751   1.479       .  S
C746        C747   1.395       .  A
C747        C748   1.386       .  A
C747        F752   1.358       .  S
C748        C749   1.417       .  A
C748        H753   1.083       .  S
C749        C750   1.420       .  A
C750        F754   1.355       .  S
C751        C756   1.406       .  A
C751        C760   1.403       .  A
C756        C757   1.399       .  A
C756        F761   1.358       .  S
C757        C758   1.405       .  A
C757        H762   1.083       .  S
C758        C759   1.410       .  A
C759        C760   1.403       .  A
C759        F763   1.357       .  S
C760        H764   1.083       .  S
C765        C766   1.397       .  A
C765        H775   1.084       .  S
C766        C771   1.480       .  S
C767        C768   1.400       .  A
C767        F772   1.357       .  S
C768        C769   1.417       .  A
C768        H773   1.079       .  S
C769        C770   1.421       .  A
C770        F774   1.356       .  S
C771       C1820   1.405   1_455  A
C771       C1824   1.398   1_455  A
C776       C1815   1.404       .  A
C776        C777   1.399       .  A
C776       F1825   1.357       .  S
C777        C778   1.414       .  A
C777        H782   1.080       .  S
C778        C779   1.421       .  A
C779        C780   1.393       .  A
C779        F783   1.356       .  S
C780       C1815   1.399       .  A
C780       H1306   1.083       .  S
F781       C1820   1.357   1_455  S
H784       C1302   1.082   1_455  S
C785        C786   1.396       .  A
C785        H795   1.083       .  S
C786        C791   1.467       .  S
C786        C787   1.398       .  A
C787        F792   1.359       .  S
C788        C789   1.416       .  A
C788        H793   1.079       .  S
C789        C790   1.422       .  A
C790        F794   1.357       .  S
C791       C1840   1.395       .  A
C791        C800   1.396       .  A
C796       C1835   1.403       .  A
C796        C797   1.388       .  A
C796        F801   1.358       .  S
C797        C798   1.417       .  A
C797        H802   1.083   1_655  S
C798       C1843   1.423       .  A
C799       C1842   1.428       .  A
C799        C800   1.400       .  A
C799        F803   1.355       .  S
C800        H804   1.084       .  S
C805        C806   1.406       .  A
C805        C810   1.396       .  A
C805        H815   1.083       .  S
C806        C811   1.484       .  S
C806        C807   1.406       .  A
C807        C808   1.402       .  A
C808        C809   1.407       .  A
C809        C810   1.406       .  A
C810        F814   1.358       .  S
C811        C816   1.404       .  A
C811        C820   1.403       .  A
C816        C817   1.396       .  A
C816        F821   1.358       .  S
C817        C818   1.413       .  A
C817        H822   1.082       .  S
C818        C819   1.415       .  A
C819        C820   1.401       .  A
C819        F823   1.356       .  S
C820        H824   1.083       .  S
C825        C826   1.407       .  A
C825        C830   1.401       .  A
C825        H835   1.083       .  S
C826        C831   1.488       .  S
C826        C827   1.407       .  A
C827        C828   1.398       .  A
C827        F832   1.357   1_455  S
C828        C829   1.406       .  A
C828        H833   1.083   1_455  S
C829        C830   1.407       .  A
C830        F834   1.357       .  S
C831        C836   1.404   1_455  A
C831        C840   1.406       .  A
C836        C837   1.393       .  A
C836       F1885   1.358       .  S
C837        C838   1.415   1_655  A
C837       H1886   1.081       .  S
C838        C839   1.415       .  A
C839        C840   1.405       .  A
C839        F843   1.357       .  S
C840        H844   1.083       .  S
F841       C1880   1.357       .  S
H842       C1881   1.081       .  S
C845        C846   1.401       .  A
C845        C850   1.405       .  A
C845        H855   1.083       .  S
C846        C851   1.477       .  S
C846        C847   1.395       .  A
C847        C848   1.391       .  A
C847        F852   1.358       .  S
C848        C849   1.420       .  A
C848        H853   1.074       .  S
C849        C850   1.420       .  A
C850        F854   1.357       .  S
C851        C856   1.406       .  A
C851        C860   1.400       .  A
C856        C857   1.396       .  A
C856        F861   1.358       .  S
C857        C858   1.404       .  A
C857        H862   1.083       .  S
C858        C859   1.414       .  A
C859        C860   1.403       .  A
C859        F863   1.357       .  S
C860        H864   1.083       .  S
C865        C866   1.404       .  A
C865        C870   1.401       .  A
C865        H875   1.083       .  S
C866        C871   1.483       .  S
C866        C867   1.405       .  A
C867        C868   1.400       .  A
C867        F872   1.357       .  S
C868        C869   1.406       .  A
C868        H873   1.083       .  S
C869        C870   1.408       .  A
C870        F874   1.358       .  S
C871        C876   1.400       .  A
C871        C880   1.405       .  A
C876        C877   1.394       .  A
C876        F881   1.358       .  S
C877        C878   1.417       .  A
C877        H882   1.080       .  S
C878        C879   1.416       .  A
C879        C880   1.408       .  A
C879        F883   1.357       .  S
C880        H884   1.083       .  S
C885        C886   1.404       .  A
C885        C890   1.401       .  A
C885        H895   1.084       .  S
C886        C891   1.475       .  S
C886        C887   1.401       .  A
C887        C888   1.397       .  A
C887        F892   1.357       .  S
C888        C889   1.407       .  A
C888        H893   1.083       .  S
C889        C890   1.410       .  A
C890        F894   1.358       .  S
C891        C896   1.399       .  A
C891        C900   1.403       .  A
C896        C897   1.390       .  A
C896        F901   1.358       .  S
C897        C898   1.415       .  A
C897        H902   1.081       .  S
C898        C899   1.416       .  A
C899        C900   1.406       .  A
C899        F903   1.357       .  S
C900        H904   1.083       .  S
C905        C906   1.403       .  A
C905        C910   1.397       .  A
C906        C911   1.479       .  S
C906        C907   1.404       .  A
C907        C908   1.403       .  A
C907        F912   1.357       .  S
C908        C909   1.408       .  A
C908        H913   1.083       .  S
C909        C910   1.408       .  A
C911        C916   1.407       .  A
C911        C920   1.393       .  A
C916        C917   1.410       .  A
C916        F921   1.357       .  S
C917        C918   1.414       .  A
C917        H922   1.081       .  S
C918        C919   1.426       .  A
C919        C920   1.384       .  A
C920        H924   1.084       .  S
C925        C930   1.397       .  A
C925        H935   1.083       .  S
C926        C931   1.490       .  S
C926        C927   1.406       .  A
C927        C928   1.399       .  A
C927        F932   1.358       .  S
C928        C929   1.413       .  A
C928        H933   1.082       .  S
C930        F934   1.357       .  S
C931        C940   1.406       .  A
C936        F941   1.357   1_545  S
C937        C938   1.410       .  A
C938        C939   1.407       .  A
C939        C940   1.396       .  A
C939        F943   1.357       .  S
C940        H944   1.083       .  S
C945        C946   1.400       .  A
C945        C950   1.400       .  A
C945        H955   1.083       .  S
C946       C1995   1.485       .  S
C946        C947   1.398       .  A
C947        C948   1.395       .  A
C947        F952   1.358       .  S
C948        C949   1.425       .  A
C948        H953   1.080       .  S
C949        C950   1.423       .  A
C950        F954   1.350       .  S
C951       C1990   1.480   1_455  S
C951        C956   1.401       .  A
C951        C960   1.400       .  A
C956        C957   1.397       .  A
C956        F961   1.357       .  S
C957        C958   1.419       .  A
C957        H962   1.076       .  S
C958        C959   1.419       .  A
C959        C960   1.392       .  A
C959        F963   1.358       .  S
C960        H964   1.083       .  S
C965       C2010   1.402       .  A
C965        C970   1.397       .  A
C965        H975   1.083       .  S
C966        C971   1.480       .  S
C966       C2009   1.403       .  A
C966        C967   1.404   1_655  A
C967        C968   1.401       .  A
C967        F972   1.357       .  S
C968        C969   1.407   1_455  A
C968        H973   1.083       .  S
C969       C2014   1.410       .  A
C970       C2013   1.410       .  A
C970        F974   1.357       .  S
C971       C2020   1.396       .  A
C971        C980   1.405       .  A
C976       C2015   1.397       .  A
C976        C977   1.390       .  A
C976        F981   1.358       .  S
C977       C2022   1.422       .  A
C977        H982   1.081       .  S
C978       C2021   1.421       .  A
C978        C979   1.418       .  A
C979        C980   1.409       .  A
C979        F983   1.354       .  S
C980        H984   1.083       .  S
C985        C986   1.403       .  A
C985        C990   1.407       .  A
C985        H995   1.083       .  S
C986        C991   1.482       .  S
C986       C2031   1.397   1_455  A
C987       C2030   1.395       .  A
C987        C988   1.394       .  A
C987        F992   1.359       .  S
C988       C2033   1.421       .  A
C988        H993   1.070       .  S
C989       C2032   1.420       .  A
C989        C990   1.424   1_655  A
C990        F994   1.358       .  S
C991        C996   1.405   1_455  A
C991       C1000   1.405       .  A
C996        C997   1.398   1_655  A
C996       F1001   1.357       .  S
C997        C998   1.407       .  A
C997       H1002   1.083   1_455  S
C998        C999   1.409       .  A
C999       C1000   1.401       .  A
C999       F1003   1.357       .  S
C1000      H2048   1.084       .  S
H1004      C2044   1.083       .  S
C1005      C1006   1.393       .  A
C1005      C1010   1.385       .  A
C1005      H1015   1.085       .  S
C1006      C1011   1.477       .  S
C1006      C1007   1.400       .  A
C1007      C1008   1.404       .  A
C1007      F1012   1.357       .  S
C1008      C1009   1.423       .  A
C1008      H1013   1.083       .  S
C1009      C1567   1.579       .  S
C1009      C1010   1.428       .  A
C1010      F1014   1.350       .  S
C1011      C1016   1.399       .  A
C1011      C1020   1.398       .  A
C1017      H1022   1.072       .  S
C1018      C1019   1.428       .  A
C1019      C1020   1.402       .  A
C1019      F1023   1.356       .  S
C1020      H1024   1.083       .  S
C1025      C1030   1.399       .  A
C1026      C1031   1.506       .  S
C1027      C1028   1.394       .  A
C1028      C1029   1.414       .  A
C1028      H1033   1.077       .  S
C1029      C1030   1.421       .  A
C1030      F1034   1.357       .  S
C1031      C1036   1.411       .  A
C1031      C1040   1.409       .  A
C1036      C1037   1.386       .  A
C1036      F1041   1.356       .  S
C1037      C1038   1.415       .  A
C1037      H1042   1.083       .  S
C1038      C1039   1.419       .  A
C1039      C1040   1.401       .  A
C1039      F1043   1.351       .  S
C1040      H1044   1.079       .  S
C1045      C1500   1.567       .  S
C1045      C1511   1.575       .  S
C1045      C1551   1.570       .  S
C1046      C1440   1.564       .  S
C1046      C1451   1.561       .  S
C1046      C1471   1.589       .  S
C1046      C2062   1.579   1_545  S
C1047      C1400   1.562       .  S
C1047      C1420   1.559       .  S
C1047      C1480   1.565       .  S
C1047      C1560   1.573       .  S
O1048      C1051   1.266   1_554  A
O1048     Cd1053   2.510       .  S
C1049      O1058   1.264       .  A
C1049      O1054   1.264   1_554  A
C1049      C1075   1.476   1_554  S
O1050      C1056   1.262       .  A
O1050     Cd1053   2.488       .  S
C1051      O1059   1.265       .  A
C1051      C1064   1.480       .  S
C1052      O1057   1.267       .  A
C1052      O1055   1.265       .  A
C1052      C1380   1.486       .  S
Cd1053     O1060   2.473   1_554  S
Cd1053     O1059   2.501   1_554  S
Cd1053     O1058   2.502       .  S
Cd1053     O1054   2.499   1_554  S
Cd1053     O1057   2.481       .  S
Cd1053     O1055   2.470       .  S
C1056      O1060   1.263   1_554  A
C1056      C1104   1.467   1_554  S
O1061      C1064   1.263   1_554  A
C1062      O1071   1.264       .  A
C1062      O1067   1.265   1_556  A
C1062      C1114   1.472       .  S
O1063      C1069   1.262       .  A
O1063     Cd1066   2.488       .  S
C1064      O1072   1.263       .  A
C1065      O1070   1.265       .  A
C1065      O1068   1.268       .  A
C1065      C1520   1.485       .  S
Cd1066     O1073   2.473       .  S
Cd1066     O1071   2.485       .  S
Cd1066     O1067   2.492   1_556  S
Cd1066     O1070   2.466       .  S
Cd1066     O1068   2.490       .  S
C1069      O1073   1.263       .  A
C1069      C1095   1.467   1_556  S
O1074      C1077   1.267       .  A
O1074     Cd1079   2.487       .  S
C1075      O1084   1.263   1_556  A
C1075      O1080   1.265       .  A
O1076      C1082   1.265       .  A
O1076     Cd1079   2.497       .  S
C1077      O1085   1.265   1_556  A
C1077      C1090   1.474   1_556  S
C1078      O1083   1.265       .  A
C1078      O1081   1.268       .  A
C1078      C1460   1.486       .  S
Cd1079     O1086   2.484       .  S
Cd1079     O1085   2.481   1_556  S
Cd1079     O1606   2.505   1_556  S
Cd1079     O1602   2.503   1_545  S
Cd1079     O1083   2.478       .  S
Cd1079     O1081   2.478       .  S
O1080     Cd1601   2.505       .  S
C1082      O1086   1.263       .  A
C1082      C1121   1.473   1_556  S
O1084     Cd1601   2.499   1_554  S
O1087      C1090   1.265   1_556  A
C1088      O1097   1.266       .  A
C1088      O1093   1.265       .  A
C1088      C1103   1.474   1_554  S
O1089      C1095   1.262       .  A
O1089     Cd1092   2.465       .  S
C1090      O1098   1.267       .  A
C1091      O1096   1.262       .  A
C1091      O1094   1.264       .  A
C1091      C1351   1.486       .  S
Cd1092     O1099   2.491       .  S
Cd1092     O1097   2.486       .  S
Cd1092     O1093   2.489       .  S
Cd1092     O1096   2.484       .  S
Cd1092     O1094   2.494       .  S
C1095      O1099   1.265       .  A
O1100      C1103   1.265       .  A
O1100     Cd1105   2.500       .  S
C1101      O1110   1.265       .  A
C1101      O1106   1.265   1_556  A
C1101      C1116   1.478   1_556  S
O1102      C1108   1.264       .  A
O1102     Cd1105   2.457       .  S
C1103      O1111   1.264       .  A
C1104      O1109   1.262       .  A
C1104      O1107   1.265   1_556  A
Cd1105     O1112   2.486       .  S
Cd1105     O1111   2.487       .  S
Cd1105     O1110   2.498       .  S
Cd1105     O1106   2.502   1_556  S
Cd1105     O1109   2.458       .  S
Cd1105     O1107   2.492   1_556  S
C1108      O1112   1.267       .  A
C1108      C1411   1.484       .  S
O1113      C1116   1.264       .  A
O1113     Cd1118   2.503       .  S
C1114      O1123   1.265   1_556  A
C1114      O1641   1.266       .  A
O1115      C1121   1.265       .  A
O1115     Cd1118   2.496       .  S
C1116      O1124   1.265   1_554  A
C1117      O1122   1.266       .  A
C1117      O1120   1.266       .  A
C1117      C1331   1.489       .  S
Cd1118     O1125   2.487       .  S
Cd1118     O1124   2.503   1_554  S
Cd1118     O1645   2.485   1_545  S
Cd1118     O1119   2.500   1_544  S
Cd1118     O1122   2.476       .  S
Cd1118     O1120   2.496       .  S
O1119      C1636   1.265       .  A
C1121      O1125   1.263       .  A
O1123     Cd1640   2.484       .  S
C1126      C1271   1.556       .  S
C1126      C1300   1.587       .  S
C1126      C1311   1.583       .  S
C1126      C1371   1.559       .  S
C1127      C1231   1.555       .  S
C1127      C1260   1.574       .  S
C1127      C1320   1.558       .  S
C1127      C1360   1.564       .  S
C1128      C1220   1.558       .  S
C1128      C1251   1.571       .  S
C1128      C1291   1.563       .  S
C1128      C1340   1.557       .  S
O1129      C1132   1.265       .  A
O1129     Cd1134   2.481       .  S
C1130      O1139   1.264       .  A
C1130      O1135   1.265       .  A
C1130      C1197   1.475       .  S
O1131      C1137   1.264       .  A
O1131     Cd1134   2.484       .  S
C1132      O1140   1.266       .  A
C1132      C1143   1.475       .  S
C1133      O1138   1.263       .  A
C1133      O1136   1.263       .  A
C1133      C1163   1.469       .  S
Cd1134     O1141   2.481       .  S
Cd1134     O1140   2.501       .  S
Cd1134     O1139   2.489       .  S
Cd1134     O1135   2.502       .  S
Cd1134     O1138   2.478       .  S
Cd1134     O1136   2.492       .  S
C1137      O1141   1.267       .  A
C1137      C1280   1.486       .  S
O1142      C1145   1.266       .  A
O1142     Cd1147   2.503       .  S
C1143      O1152   1.264       .  A
C1143      O1148   1.263       .  A
O1144      C1150   1.262       .  A
O1144     Cd1147   2.476       .  S
C1145      O1153   1.263       .  A
C1145      C1171   1.473       .  S
C1146      O1151   1.265       .  A
C1146      O1149   1.264       .  A
C1146      C1491   1.481       .  S
Cd1147     O1154   2.493       .  S
Cd1147     O1153   2.473       .  S
Cd1147     O1151   2.478       .  S
Cd1147     O1149   2.466       .  S
C1150      O1154   1.263       .  A
C1150      C1189   1.469       .  S
O1155      C1158   1.263       .  A
O1155     Cd1160   2.506       .  S
C1156      O1165   1.266       .  A
C1156      O1161   1.265       .  A
C1156      C1169   1.475       .  S
O1157      C1163   1.265       .  A
O1157     Cd1160   2.487       .  S
C1158      O1166   1.263       .  A
C1158      C1184   1.476       .  S
C1159      O1164   1.265       .  A
C1159      O1162   1.266       .  A
C1159      C1391   1.486       .  S
Cd1160     O1167   2.468       .  S
Cd1160     O1166   2.505       .  S
Cd1160     O1165   2.487       .  S
Cd1160     O1161   2.497       .  S
Cd1160     O1164   2.487       .  S
Cd1160     O1162   2.492       .  S
C1163      O1167   1.264       .  A
O1168      C1693   1.266       .  A
O1168     Cd1173   2.488   1_565  S
C1169      O1178   1.261       .  A
C1169      O1174   1.264       .  A
O1170      C1176   1.263       .  A
O1170     Cd1173   2.478       .  S
C1171      O1690   1.266       .  A
C1171      O1179   1.267       .  A
C1172      O1177   1.265       .  A
C1172      O1175   1.267       .  A
C1172      C1211   1.487       .  S
Cd1173     O1180   2.502       .  S
Cd1173     O1701   2.485       .  S
Cd1173     O1178   2.490       .  S
Cd1173     O1174   2.518       .  S
Cd1173     O1177   2.486       .  S
Cd1173     O1175   2.474       .  S
C1176      O1180   1.265       .  A
C1176      C1202   1.473       .  S
O1179     Cd1695   2.474       .  S
O1181      C1184   1.264       .  A
O1181     Cd1186   2.494       .  S
C1182      O1191   1.264       .  A
C1182      O1187   1.265       .  A
C1182      C1195   1.479       .  S
O1183      C1189   1.264       .  A
O1183     Cd1186   2.494       .  S
C1184      O1192   1.265       .  A
C1185      O1190   1.266       .  A
C1185      O1188   1.266       .  A
C1185      C1240   1.489       .  S
Cd1186     O1193   2.476       .  S
Cd1186     O1192   2.498       .  S
Cd1186     O1190   2.491       .  S
Cd1186     O1188   2.480       .  S
C1189      O1193   1.263       .  A
O1194      C1197   1.266       .  A
O1194     Cd1721   2.495       .  S
C1195      O1204   1.266       .  A
C1195      O1200   1.266       .  A
O1196      C1202   1.263       .  A
O1196     Cd1199   2.499       .  S
C1197      O1205   1.266       .  A
C1198      O1203   1.264       .  A
C1198      O1201   1.266       .  A
C1198      C1431   1.489       .  S
Cd1199     O1716   2.502   1_545  S
Cd1199     O1206   2.489       .  S
Cd1199     O1727   2.513   1_545  S
Cd1199     O1204   2.507       .  S
Cd1199     O1200   2.496       .  S
Cd1199     O1203   2.487       .  S
Cd1199     O1201   2.492       .  S
C1202      O1206   1.264       .  A
O1205     Cd1721   2.486       .  S
C1207      C1208   1.406       .  A
C1207      C1212   1.395       .  A
C1207      H1217   1.084       .  S
C1208      C1213   1.487       .  S
C1208      C1209   1.405       .  A
C1209      C1210   1.405       .  A
C1209      F1214   1.357       .  S
C1210      C1211   1.411       .  A
C1210      H1215   1.083       .  S
C1211      C1212   1.407       .  A
C1212      F1738   1.357       .  S
C1213      C1218   1.403       .  A
C1213      C1222   1.406       .  A
F1216      C1734   1.357       .  S
C1218      C1219   1.393       .  A
C1218      F1223   1.358   1_545  S
C1219      C1220   1.415       .  A
C1219      H1224   1.081   1_545  S
C1220      C1221   1.414       .  A
C1221      C1222   1.406       .  A
C1221      F1225   1.357       .  S
C1222      H1226   1.083       .  S
C1227      C1228   1.401       .  A
C1227      C1232   1.402       .  A
C1228      C1233   1.483       .  S
C1228      C1229   1.404       .  A
C1229      C1230   1.401       .  A
C1229      F1234   1.357       .  S
C1230      C1231   1.413       .  A
C1230      H1235   1.081       .  S
C1231      C1232   1.418       .  A
C1233      C1238   1.404       .  A
C1233      C1242   1.404       .  A
C1238      C1239   1.403       .  A
C1238      F1243   1.357       .  S
C1239      C1240   1.409       .  A
C1239      H1244   1.083       .  S
C1240      C1241   1.410       .  A
C1241      C1242   1.400       .  A
C1241      F1245   1.358       .  S
C1242      H1246   1.084       .  S
C1247      C1248   1.402       .  A
C1247      C1252   1.396       .  A
C1247      H1257   1.082       .  S
C1248      C1253   1.495       .  S
C1248      C1249   1.407       .  A
C1249      C1250   1.400       .  A
C1249      F1254   1.357       .  S
C1250      C1251   1.417       .  A
C1250      H1255   1.075       .  S
C1251      C1252   1.422       .  A
C1252      F1256   1.357       .  S
C1253      C1258   1.406       .  A
C1253      C1262   1.399       .  A
C1258      C1259   1.402       .  A
C1258      F1263   1.358       .  S
C1259      C1260   1.419       .  A
C1259      H1264   1.077       .  S
C1260      C1261   1.425       .  A
C1261      C1262   1.395       .  A
C1261      F1265   1.355       .  S
C1262      H1266   1.082       .  S
C1267      C1268   1.404       .  A
C1267      C1272   1.402       .  A
C1267      H1277   1.083       .  S
C1268      C1273   1.484       .  S
C1268      C1269   1.401       .  A
C1269      C1270   1.397       .  A
C1269      F1274   1.358       .  S
C1270      C1271   1.417       .  A
C1270      H1275   1.081       .  S
C1271      C1272   1.416       .  A
C1272      F1276   1.357       .  S
C1273      C1278   1.406       .  A
C1273      C1282   1.404       .  A
C1278      C1279   1.398       .  A
C1278      F1283   1.358       .  S
C1279      C1280   1.405       .  A
C1279      H1284   1.083       .  S
C1280      C1281   1.412       .  A
C1281      C1282   1.404       .  A
C1281      F1285   1.357       .  S
C1282      H1286   1.083       .  S
C1287      C1288   1.399       .  A
C1287      C1814   1.388       .  A
C1287      H1297   1.084       .  S
C1288      C1293   1.473       .  S
C1288      C1811   1.400       .  A
C1289      C1810   1.403       .  A
C1289      C1290   1.402       .  A
C1289      F1294   1.357       .  S
C1290      C1291   1.418   1_565  A
C1290      H1295   1.078       .  S
C1291      C1292   1.421   1_545  A
C1292      C1809   1.390       .  A
C1292      F1296   1.358   1_565  S
C1298      C1299   1.399       .  A
C1299      C1300   1.426       .  A
C1299      H1304   1.082       .  S
C1300      C1301   1.419       .  A
C1301      C1302   1.390       .  A
C1301      F1305   1.346       .  S
C1307      C1308   1.399       .  A
C1307      C1834   1.404   1_545  A
C1307      H1317   1.083       .  S
C1308      C1313   1.469       .  S
C1308      C1309   1.397       .  A
C1309      C1832   1.385   1_545  A
C1309      F1314   1.359       .  S
C1310      C1831   1.397       .  A
C1310      C1311   1.412       .  A
C1310      H1315   1.079       .  S
C1311      C1312   1.427       .  A
C1312      C1829   1.398       .  A
C1312      F1316   1.356       .  S
C1313      C1322   1.397       .  A
C1318      C1319   1.382       .  A
C1318      F1323   1.359       .  S
C1319      C1320   1.417       .  A
C1319      H1324   1.083       .  S
C1321      C1322   1.403       .  A
C1321      F1325   1.354       .  S
C1322      H1326   1.083       .  S
C1327      C1328   1.405       .  A
C1327      C1332   1.399       .  A
C1327      H1337   1.083   1_545  S
C1328      C1333   1.491       .  S
C1328      C1329   1.409       .  A
C1329      C1330   1.404       .  A
C1329      F1856   1.357       .  S
C1330      C1331   1.408       .  A
C1330      H1857   1.083       .  S
C1331      C1332   1.409       .  A
C1332      F1336   1.357   1_545  S
C1333      C1338   1.405       .  A
C1333      C1342   1.407       .  A
F1334      C1851   1.357       .  S
H1335      C1852   1.083       .  S
C1338      C1339   1.396       .  A
C1338      F1343   1.357       .  S
C1339      C1340   1.415       .  A
C1339      H1344   1.080       .  S
C1340      C1341   1.415       .  A
C1341      C1342   1.404       .  A
C1341      F1345   1.357   1_545  S
C1342      H1346   1.083   1_545  S
C1347      C1348   1.405       .  A
C1347      C1352   1.400       .  A
C1347      H1357   1.083       .  S
C1348      C1353   1.488       .  S
C1348      C1349   1.408       .  A
C1349      C1350   1.401       .  A
C1349      F1354   1.358       .  S
C1350      C1351   1.407       .  A
C1350      H1355   1.083       .  S
C1351      C1352   1.409       .  A
C1352      F1356   1.357       .  S
C1353      C1358   1.402       .  A
C1353      C1362   1.408       .  A
C1358      C1359   1.392       .  A
C1359      C1360   1.417       .  A
C1360      C1361   1.413       .  A
C1361      C1362   1.407       .  A
C1361      F1365   1.357       .  S
C1362      H1366   1.083       .  S
C1367      C1368   1.406       .  A
C1367      C1372   1.411       .  A
C1367      H1377   1.083       .  S
C1368      C1373   1.478       .  S
C1368      C1369   1.395       .  A
C1369      C1370   1.383       .  A
C1369      F1374   1.358       .  S
C1370      C1371   1.420       .  A
C1370      H1375   1.084       .  S
C1371      C1372   1.418       .  A
C1372      F1376   1.355       .  S
C1373      C1378   1.405       .  A
C1373      C1382   1.401       .  A
C1378      C1379   1.398       .  A
C1378      F1383   1.358       .  S
C1379      C1380   1.406       .  A
C1379      H1384   1.083       .  S
C1380      C1381   1.412       .  A
C1381      C1382   1.402       .  A
C1381      F1385   1.357       .  S
C1382      H1386   1.083       .  S
C1387      C1388   1.404       .  A
C1387      C1392   1.402       .  A
C1387      H1397   1.083       .  S
C1388      C1393   1.485       .  S
C1388      C1389   1.407       .  A
C1389      C1390   1.402       .  A
C1389      F1394   1.357       .  S
C1390      C1391   1.406       .  A
C1390      H1395   1.083       .  S
C1391      C1392   1.409       .  A
C1392      F1396   1.357       .  S
C1393      C1398   1.399       .  A
C1393      C1402   1.407       .  A
C1398      C1399   1.391       .  A
C1398      F1403   1.358       .  S
C1399      C1400   1.419       .  A
C1399      H1404   1.080       .  S
C1400      C1401   1.415       .  A
C1401      C1402   1.410       .  A
C1401      F1405   1.357       .  S
C1402      H1406   1.083       .  S
C1407      C1408   1.405       .  A
C1407      C1412   1.401       .  A
C1407      H1417   1.083       .  S
C1408      C1413   1.482       .  S
C1408      C1409   1.404       .  A
C1409      C1410   1.398       .  A
C1409      F1414   1.357       .  S
C1410      C1411   1.407       .  A
C1410      H1415   1.083       .  S
C1411      C1412   1.409       .  A
C1412      F1416   1.358       .  S
C1413      C1418   1.402       .  A
C1413      C1422   1.403       .  A
C1418      C1419   1.393       .  A
C1418      F1423   1.358       .  S
C1419      C1420   1.415       .  A
C1419      H1424   1.080       .  S
C1420      C1421   1.417       .  A
C1421      C1422   1.404       .  A
C1421      F1425   1.357       .  S
C1422      H1426   1.083       .  S
C1427      C1428   1.404   1_565  A
C1427      C1432   1.401       .  A
C1427      H1959   1.083       .  S
C1428      C1433   1.482       .  S
C1428      C1429   1.404       .  A
C1429      C1430   1.402       .  A
C1429      F1434   1.357       .  S
C1430      C1431   1.408       .  A
C1430      H1435   1.083       .  S
C1431      C1432   1.411   1_545  A
C1432      F1958   1.357       .  S
C1433      C1438   1.407       .  A
C1433      C1442   1.393   1_545  A
F1436      C1954   1.357       .  S
H1437      C1949   1.084       .  S
C1438      C1439   1.411       .  A
C1438      F1443   1.357       .  S
C1439      C1440   1.415       .  A
C1439      H1444   1.081       .  S
C1440      C1441   1.428   1_545  A
C1441      C1442   1.389       .  A
C1441      F1967   1.359       .  S
C1442      H1446   1.084       .  S
F1445      C1963   1.360       .  S
C1447      C1970   1.403       .  A
C1447      C1452   1.398       .  A
C1447      H1457   1.083       .  S
C1448      C1453   1.492       .  S
C1448      C1969   1.404   1_545  A
C1448      C1449   1.406       .  A
C1449      C1450   1.401       .  A
C1449      F1454   1.358       .  S
C1450      C1451   1.414       .  A
C1450      H1455   1.083       .  S
C1451      C1974   1.417   1_545  A
C1452      C1973   1.416       .  A
C1452      F1456   1.357       .  S
C1453      C1980   1.408       .  A
C1453      C1462   1.407       .  A
C1458      C1975   1.407       .  A
C1458      C1981   1.402       .  A
C1458      F1463   1.357       .  S
C1459      C1980   1.404       .  A
C1459      C1460   1.408       .  A
C1459      H1986   1.083       .  S
C1460      C1461   1.406       .  A
C1461      C1462   1.398       .  A
C1461      F1465   1.357       .  S
C1462      H1466   1.083       .  S
H1464      C1981   1.083       .  S
C1467      C1468   1.398       .  A
C1467      C1472   1.394       .  A
C1467      H1477   1.082       .  S
C1468      C1469   1.400       .  A
C1469      C1470   1.395       .  A
C1469      F1474   1.358       .  S
C1470      C1471   1.424       .  A
C1470      H1475   1.078       .  S
C1471      C1472   1.424       .  A
C1472      F1476   1.351       .  S
C1473      C1478   1.403       .  A
C1473      C1482   1.399       .  A
C1478      C1479   1.398       .  A
C1478      F1483   1.358       .  S
C1479      C1480   1.418       .  A
C1479      H1484   1.076       .  S
C1480      C1481   1.419       .  A
C1481      C1482   1.388       .  A
C1481      F1485   1.358       .  S
C1482      H1486   1.083       .  S
C1487      C1492   1.404       .  A
C1487      H1497   1.083       .  S
C1488      C1493   1.474       .  S
C1488      C1489   1.404       .  A
C1489      C1490   1.398       .  A
C1489      F1494   1.358       .  S
C1490      C1491   1.406       .  A
C1490      H1495   1.083       .  S
C1492      F1496   1.357       .  S
C1493      C1502   1.400       .  A
C1498      C1499   1.385       .  A
C1498      F1503   1.358       .  S
C1499      H1504   1.083   1_655  S
C1500      C1501   1.421       .  A
C1501      C1502   1.405       .  A
C1501      F1505   1.352       .  S
C1502      H1506   1.083       .  S
C1507      C1508   1.403       .  A
C1507      C1512   1.406       .  A
C1507      H1517   1.083       .  S
C1508      C1513   1.485       .  S
C1509      C1510   1.391       .  A
C1509      F1514   1.359       .  S
C1510      H1515   1.073       .  S
C1511      C1512   1.427       .  A
C1512      F1516   1.358       .  S
C1513      C1518   1.406       .  A
C1513      C1522   1.405       .  A
C1518      C1519   1.400       .  A
C1518      F1523   1.357       .  S
C1519      C1520   1.406       .  A
C1519      H1524   1.083       .  S
C1520      C1521   1.409       .  A
C1521      C1522   1.402       .  A
C1521      F1525   1.357       .  S
C1527      C1528   1.395       .  A
C1527      C1532   1.386       .  A
C1527      H1537   1.085       .  S
C1528      C1533   1.474       .  S
C1528      C1529   1.399       .  A
C1529      C1530   1.402       .  A
C1529      F1534   1.357       .  S
C1530      C1531   1.422       .  A
C1530      H1535   1.083       .  S
C1531      C1532   1.425       .  A
C1532      F1536   1.352   1_655  S
C1533      C1538   1.398       .  A
C1533      C1542   1.398       .  A
C1538      C2061   1.390       .  A
C1538      F2065   1.358       .  S
C1539      C2060   1.390       .  A
C1539      C2062   1.411       .  A
C1539      H1544   1.070       .  S
C1540      C1568   1.580       .  S
C1540      C2061   1.411       .  A
C1540      C1541   1.428       .  A
C1541      C1542   1.402       .  A
C1541      F1545   1.357       .  S
C1542      H1546   1.083       .  S
F1543      C2060   1.358       .  S
C1547      C2070   1.404       .  A
C1547      C1552   1.397       .  A
C1547      H2079   1.082       .  S
C1548      C1553   1.501   1_565  S
C1548      C2069   1.405       .  A
C1548      C2071   1.410       .  A
C1549      C2070   1.406       .  A
C1549      C1550   1.392       .  A
C1549      F2076   1.357       .  S
C1550      C1551   1.417       .  A
C1550      H1555   1.074       .  S
C1551      C1552   1.426       .  A
C1552      F1556   1.357       .  S
C1553      C1558   1.409       .  A
C1553      C1562   1.406       .  A
F1554      C2071   1.356       .  S
H1557      C2069   1.082       .  S
C1558      C1559   1.388       .  A
C1558      F1563   1.358       .  S
C1559      C1560   1.417       .  A
C1559      H1564   1.083       .  S
C1560      C1561   1.422       .  A
C1561      C1562   1.403       .  A
C1561      F1565   1.350       .  S
C1562      H1566   1.081       .  S
C1567      C2022   1.568       .  S
C1567      C2033   1.578       .  S
C1567      C2073   1.568       .  S
C1568      C1962   1.560       .  S
C1568      C1973   1.555       .  S
C1568      C1993   1.586       .  S
C1569      C1922   1.556       .  S
C1569      C1942   1.560       .  S
C1569      C2002   1.568       .  S
C1569      C2082   1.566       .  S
O1570      C1573   1.263   1_554  A
O1570     Cd1575   2.498       .  S
C1571      O1580   1.265   1_556  A
C1571      O1576   1.263       .  A
C1571      C1597   1.474       .  S
O1572      C1578   1.265   1_554  A
O1572     Cd1575   2.500       .  S
C1573      O1581   1.265       .  A
C1573      C1586   1.479       .  S
C1574      O1579   1.267       .  A
C1574      O1577   1.265       .  A
C1574      C1902   1.490       .  S
Cd1575     O1582   2.466   1_554  S
Cd1575     O1581   2.524   1_554  S
Cd1575     O1580   2.497       .  S
Cd1575     O1576   2.488   1_554  S
Cd1575     O1579   2.499       .  S
Cd1575     O1577   2.473       .  S
C1578      O1582   1.262       .  A
C1578      C1626   1.469       .  S
O1583      C1586   1.263   1_554  A
C1584      O1593   1.265       .  A
C1584      O1589   1.264   1_556  A
C1584      C1636   1.474       .  S
O1585      C1591   1.265       .  A
O1585     Cd1588   2.505       .  S
C1586      O1594   1.263       .  A
C1587      O1592   1.265       .  A
C1587      O1590   1.266       .  A
C1587      C2042   1.488       .  S
Cd1588     O1595   2.462       .  S
Cd1588     O1593   2.504       .  S
Cd1588     O1589   2.485   1_556  S
Cd1588     O1592   2.488       .  S
Cd1588     O1590   2.479       .  S
C1591      O1595   1.264       .  A
C1591      C1617   1.470   1_556  S
O1596      C1599   1.263       .  A
O1596     Cd1601   2.488       .  S
C1597      O1606   1.262   1_566  A
C1597      O1602   1.263       .  A
O1598      C1604   1.264       .  A
O1598     Cd1601   2.483       .  S
C1599      O1607   1.265   1_556  A
C1599      C1612   1.474   1_556  S
C1600      O1605   1.265       .  A
C1600      O1603   1.266       .  A
C1600      C1982   1.486       .  S
Cd1601     O1608   2.486       .  S
Cd1601     O1607   2.496   1_556  S
Cd1601     O1605   2.481       .  S
Cd1601     O1603   2.474       .  S
C1604      O1608   1.265       .  A
C1604      C1643   1.471   1_556  S
O1609      C1612   1.265   1_556  A
C1610      O1619   1.266       .  A
C1610      O1615   1.264       .  A
C1610      C1625   1.478   1_554  S
O1611      C1617   1.262       .  A
O1611     Cd1614   2.455       .  S
C1612      O1620   1.264       .  A
C1613      O1618   1.262       .  A
C1613      O1616   1.266       .  A
C1613      C1873   1.486       .  S
Cd1614     O1621   2.513       .  S
Cd1614     O1619   2.507       .  S
Cd1614     O1615   2.499       .  S
Cd1614     O1618   2.485       .  S
Cd1614     O1616   2.497       .  S
C1617      O1621   1.266       .  A
O1622      C1625   1.266       .  A
O1622     Cd1627   2.500       .  S
C1623      O1632   1.265       .  A
C1623      O1628   1.264   1_556  A
C1623      C1638   1.474       .  S
O1624      C1630   1.265       .  A
O1624     Cd1627   2.467       .  S
C1625      O1633   1.265   1_556  A
C1626      O1631   1.264       .  A
C1626      O1629   1.264   1_556  A
Cd1627     O1634   2.494       .  S
Cd1627     O1633   2.500   1_556  S
Cd1627     O1632   2.506       .  S
Cd1627     O1628   2.480   1_556  S
Cd1627     O1631   2.469       .  S
Cd1627     O1629   2.489   1_556  S
C1630      O1634   1.265       .  A
C1630      C1933   1.486       .  S
O1635      C1638   1.263   1_554  A
O1635     Cd1640   2.481       .  S
C1636      O1645   1.265   1_556  A
O1637      C1643   1.264       .  A
O1637     Cd1640   2.487       .  S
C1638      O1646   1.265       .  A
C1639      O1644   1.266       .  A
C1639      O1642   1.265       .  A
C1639      C1853   1.483       .  S
Cd1640     O1647   2.486       .  S
Cd1640     O1646   2.506   1_554  S
Cd1640     O1641   2.480   1_554  S
Cd1640     O1644   2.466       .  S
Cd1640     O1642   2.474       .  S
C1643      O1647   1.264       .  A
C1648      C1793   1.559       .  S
C1648      C1822   1.564       .  S
C1648      C1833   1.564       .  S
C1648      C1893   1.562       .  S
C1649      C1753   1.543       .  S
C1649      C1782   1.568       .  S
C1649      C1842   1.560       .  S
C1649      C1882   1.556       .  S
C1650      C1742   1.560       .  S
C1650      C1773   1.571       .  S
C1650      C1813   1.561       .  S
C1650      C1862   1.556       .  S
O1651      C1654   1.264       .  A
O1651     Cd1656   2.504       .  S
C1652      O1661   1.264       .  A
C1652      O1657   1.265       .  A
C1652      C1719   1.481       .  S
O1653      C1659   1.265       .  A
O1653     Cd1656   2.474       .  S
C1654      O1662   1.263       .  A
C1654      C1665   1.477       .  S
C1655      O1660   1.263       .  A
C1655      O1658   1.261       .  A
C1655      C1685   1.468       .  S
Cd1656     O1663   2.475       .  S
Cd1656     O1662   2.507       .  S
Cd1656     O1661   2.514       .  S
Cd1656     O1657   2.509       .  S
Cd1656     O1660   2.493       .  S
Cd1656     O1658   2.485       .  S
C1659      O1663   1.269       .  A
C1659      C1802   1.484       .  S
O1664      C1667   1.264       .  A
O1664     Cd1669   2.493       .  S
C1665      O1674   1.267       .  A
C1665      O1670   1.266       .  A
O1666      C1672   1.262       .  A
O1666     Cd1669   2.490       .  S
C1667      O1675   1.265       .  A
C1667      C1693   1.475       .  S
C1668      O1673   1.264       .  A
C1668      O1671   1.266       .  A
C1668      C2013   1.486       .  S
Cd1669     O1676   2.492       .  S
Cd1669     O1675   2.498       .  S
Cd1669     O1673   2.453       .  S
Cd1669     O1671   2.506       .  S
C1672      O1676   1.264       .  A
C1672      C1711   1.471       .  S
O1677      C1680   1.266       .  A
O1677     Cd1682   2.495       .  S
C1678      O1687   1.265       .  A
C1678      O1683   1.262       .  A
C1678      C1691   1.477       .  S
O1679      C1685   1.265       .  A
O1679     Cd1682   2.481       .  S
C1680      O1688   1.266       .  A
C1680      C1706   1.477       .  S
C1681      O1686   1.264       .  A
C1681      O1684   1.267       .  A
C1681      C1913   1.488       .  S
Cd1682     O1689   2.471       .  S
Cd1682     O1688   2.497       .  S
Cd1682     O1687   2.519       .  S
Cd1682     O1683   2.495       .  S
Cd1682     O1686   2.481       .  S
Cd1682     O1684   2.490       .  S
C1685      O1689   1.263       .  A
O1690     Cd1695   2.486       .  S
C1691      O1700   1.263       .  A
C1691      O1696   1.264       .  A
O1692      C1698   1.265       .  A
O1692     Cd1695   2.491       .  S
C1693      O1701   1.265   1_565  A
C1694      O1699   1.263       .  A
C1694      O1697   1.266       .  A
C1694      C1733   1.486       .  S
Cd1695     O1702   2.480       .  S
Cd1695     O1700   2.507       .  S
Cd1695     O1696   2.501       .  S
Cd1695     O1699   2.474       .  S
Cd1695     O1697   2.490       .  S
C1698      O1702   1.263       .  A
C1698      C1724   1.470       .  S
O1703      C1706   1.264       .  A
O1703     Cd1708   2.501       .  S
C1704      O1713   1.264       .  A
C1704      O1709   1.264       .  A
C1704      C1717   1.471       .  S
O1705      C1711   1.262       .  A
O1705     Cd1708   2.481       .  S
C1706      O1714   1.264       .  A
C1707      O1712   1.266       .  A
C1707      O1710   1.267       .  A
C1707      C1762   1.482       .  S
Cd1708     O1715   2.494       .  S
Cd1708     O1714   2.506       .  S
Cd1708     O1712   2.456       .  S
Cd1708     O1710   2.471       .  S
C1711      O1715   1.265       .  A
O1716      C1719   1.265       .  A
C1717      O1726   1.264       .  A
C1717      O1722   1.264       .  A
O1718      C1724   1.263       .  A
O1718     Cd1721   2.481       .  S
C1719      O1727   1.266       .  A
C1720      O1725   1.265       .  A
C1720      O1723   1.264       .  A
C1720      C1953   1.486       .  S
Cd1721     O1728   2.487       .  S
Cd1721     O1726   2.486       .  S
Cd1721     O1722   2.486       .  S
Cd1721     O1725   2.473       .  S
Cd1721     O1723   2.485       .  S
C1724      O1728   1.264       .  A
C1729      C1730   1.405       .  A
C1729      C1734   1.399       .  A
C1729      H1739   1.084       .  S
C1730      C1735   1.485       .  S
C1730      C1731   1.406       .  A
C1731      C1732   1.401       .  A
C1731      F1736   1.357       .  S
C1732      C1733   1.408       .  A
C1732      H1737   1.083       .  S
C1733      C1734   1.408       .  A
C1735      C1740   1.402       .  A
C1735      C1744   1.406       .  A
C1740      C1741   1.393       .  A
C1740      F1745   1.358       .  S
C1741      C1742   1.417       .  A
C1741      H1746   1.081       .  S
C1742      C1743   1.413       .  A
C1743      C1744   1.404       .  A
C1743      F1747   1.357       .  S
C1744      H1748   1.083       .  S
C1749      C1750   1.400       .  A
C1749      C1754   1.398       .  A
C1750      C1755   1.474       .  S
C1750      C1751   1.402       .  A
C1751      C1752   1.395       .  A
C1751      F1756   1.357       .  S
C1752      C1753   1.411       .  A
C1752      H1757   1.082       .  S
C1753      C1754   1.416       .  A
C1755      C1760   1.401       .  A
C1755      C1764   1.403       .  A
C1760      C1761   1.399       .  A
C1760      F1765   1.357       .  S
C1761      C1762   1.409       .  A
C1761      H1766   1.083       .  S
C1762      C1763   1.409       .  A
C1763      C1764   1.397       .  A
C1763      F1767   1.358       .  S
C1764      H1768   1.084       .  S
C1769      C1770   1.402       .  A
C1769      C1774   1.395       .  A
C1769      H1779   1.083       .  S
C1770      C1775   1.490       .  S
C1770      C1771   1.404       .  A
C1771      C1772   1.399       .  A
C1771      F1776   1.358       .  S
C1772      C1773   1.418       .  A
C1772      H1777   1.074       .  S
C1773      C1774   1.421       .  A
C1774      F1778   1.357       .  S
C1775      C1780   1.404       .  A
C1775      C1784   1.399       .  A
C1780      C1781   1.399       .  A
C1780      F1785   1.358       .  S
C1781      C1782   1.418       .  A
C1781      H1786   1.078       .  S
C1782      C1783   1.424       .  A
C1783      C1784   1.395       .  A
C1783      F1787   1.355       .  S
C1784      H1788   1.082       .  S
C1789      C1790   1.406       .  A
C1789      C1794   1.413       .  A
C1789      H1799   1.083       .  S
C1790      C1795   1.481       .  S
C1790      C1791   1.395       .  A
C1791      C1792   1.386       .  A
C1791      F1796   1.358       .  S
C1792      C1793   1.418       .  A
C1792      H1797   1.082       .  S
C1793      C1794   1.421       .  A
C1794      F1798   1.355       .  S
C1795      C1800   1.406       .  A
C1795      C1804   1.403       .  A
C1800      C1801   1.397       .  A
C1800      F1805   1.358       .  S
C1801      C1802   1.403       .  A
C1801      H1806   1.083       .  S
C1802      C1803   1.411       .  A
C1803      C1804   1.405       .  A
C1803      F1807   1.357       .  S
C1804      H1808   1.083       .  S
C1809      C1810   1.398       .  A
C1809      H1819   1.084       .  S
C1810      C1815   1.479       .  S
C1811      C1812   1.398       .  A
C1811      F1816   1.358       .  S
C1812      C1813   1.419       .  A
C1812      H1817   1.077       .  S
C1813      C1814   1.418       .  A
C1814      F1818   1.358       .  S
C1820      C1821   1.399       .  A
C1821      C1822   1.413       .  A
C1821      H1826   1.080       .  S
C1822      C1823   1.422       .  A
C1823      C1824   1.394       .  A
C1823      F1827   1.356       .  S
C1829      C1830   1.401       .  A
C1829      H1839   1.083       .  S
C1830      C1835   1.487       .  S
C1830      C1831   1.404       .  A
C1831      F1836   1.356       .  S
C1832      C1833   1.417       .  A
C1832      H1837   1.079       .  S
C1833      C1834   1.422       .  A
C1834      F1838   1.357       .  S
C1835      C1844   1.403       .  A
C1840      C1841   1.386       .  A
C1840      F1845   1.358       .  S
C1841      C1842   1.416       .  A
C1841      H1846   1.082       .  S
C1843      C1844   1.403       .  A
C1843      F1847   1.352       .  S
C1844      H1848   1.082       .  S
C1849      C1850   1.403       .  A
C1849      C1854   1.397       .  A
C1849      H1859   1.084       .  S
C1850      C1855   1.481       .  S
C1850      C1851   1.405       .  A
C1851      C1852   1.400       .  A
C1852      C1853   1.408       .  A
C1853      C1854   1.409       .  A
C1854      F1858   1.357       .  S
C1855      C1860   1.402       .  A
C1855      C1864   1.403       .  A
C1860      C1861   1.395       .  A
C1860      F1865   1.358       .  S
C1861      C1862   1.415       .  A
C1861      H1866   1.080       .  S
C1862      C1863   1.416       .  A
C1863      C1864   1.401       .  A
C1863      F1867   1.357       .  S
C1864      H1868   1.083       .  S
C1869      C1870   1.403       .  A
C1869      C1874   1.398       .  A
C1869      H1879   1.084       .  S
C1870      C1875   1.480       .  S
C1870      C1871   1.404       .  A
C1871      C1872   1.403       .  A
C1871      F1876   1.358       .  S
C1872      C1873   1.410       .  A
C1872      H1877   1.083       .  S
C1873      C1874   1.407       .  A
C1874      F1878   1.357       .  S
C1875      C1880   1.401       .  A
C1875      C1884   1.404       .  A
C1880      C1881   1.395       .  A
C1881      C1882   1.415       .  A
C1882      C1883   1.414       .  A
C1883      C1884   1.402       .  A
C1883      F1887   1.357       .  S
C1884      H1888   1.083       .  S
C1889      C1890   1.406       .  A
C1889      C1894   1.406       .  A
C1889      H1899   1.083       .  S
C1890      C1895   1.493       .  S
C1890      C1891   1.403       .  A
C1891      C1892   1.395       .  A
C1891      F1896   1.358       .  S
C1892      C1893   1.418       .  A
C1892      H1897   1.076       .  S
C1893      C1894   1.418       .  A
C1894      F1898   1.357       .  S
C1895      C1900   1.410       .  A
C1895      C1904   1.406       .  A
C1900      C1901   1.403       .  A
C1900      F1905   1.357       .  S
C1901      C1902   1.407       .  A
C1901      H1906   1.083       .  S
C1902      C1903   1.410       .  A
C1903      C1904   1.401       .  A
C1903      F1907   1.357       .  S
C1904      H1908   1.083       .  S
C1909      C1910   1.404       .  A
C1909      C1914   1.398       .  A
C1909      H1919   1.084       .  S
C1910      C1915   1.485       .  S
C1910      C1911   1.406       .  A
C1911      C1912   1.403       .  A
C1911      F1916   1.358       .  S
C1912      C1913   1.410       .  A
C1912      H1917   1.083       .  S
C1913      C1914   1.408       .  A
C1914      F1918   1.357       .  S
C1915      C1920   1.402       .  A
C1915      C1924   1.405       .  A
C1920      C1921   1.395       .  A
C1920      F1925   1.358       .  S
C1921      C1922   1.416       .  A
C1921      H1926   1.080       .  S
C1922      C1923   1.415       .  A
C1923      C1924   1.405       .  A
C1923      F1927   1.357       .  S
C1924      H1928   1.083       .  S
C1929      C1930   1.405       .  A
C1929      C1934   1.402       .  A
C1929      H1939   1.083       .  S
C1930      C1935   1.485       .  S
C1930      C1931   1.406       .  A
C1931      C1932   1.398       .  A
C1931      F1936   1.357       .  S
C1932      C1933   1.406       .  A
C1932      H1937   1.083       .  S
C1933      C1934   1.410       .  A
C1934      F1938   1.357       .  S
C1935      C1940   1.402       .  A
C1935      C1944   1.407       .  A
C1940      C1941   1.389       .  A
C1940      F1945   1.358       .  S
C1941      C1942   1.416       .  A
C1941      H1946   1.081       .  S
C1942      C1943   1.415       .  A
C1943      C1944   1.407       .  A
C1943      F1947   1.357       .  S
C1944      H1948   1.083       .  S
C1949      C1950   1.404       .  A
C1949      C1954   1.396       .  A
C1950      C1955   1.482       .  S
C1950      C1951   1.404       .  A
C1951      C1952   1.404       .  A
C1951      F1956   1.357       .  S
C1952      C1953   1.410       .  A
C1952      H1957   1.083       .  S
C1953      C1954   1.408       .  A
C1955      C1960   1.408       .  A
C1955      C1964   1.394       .  A
C1960      C1961   1.411       .  A
C1960      F1965   1.357       .  S
C1961      C1962   1.415       .  A
C1961      H1966   1.081       .  S
C1962      C1963   1.425       .  A
C1963      C1964   1.384       .  A
C1964      H1968   1.084       .  S
C1969      C1974   1.402       .  A
C1969      H1979   1.083       .  S
C1970      C1975   1.489       .  S
C1970      C1971   1.407       .  A
C1971      C1972   1.401       .  A
C1971      F1976   1.357       .  S
C1972      C1973   1.413       .  A
C1972      H1977   1.083       .  S
C1974      F1978   1.357       .  S
C1975      C1984   1.407       .  A
C1980      F1985   1.357   1_545  S
C1981      C1982   1.408       .  A
C1982      C1983   1.408       .  A
C1983      C1984   1.398       .  A
C1983      F1987   1.358       .  S
C1984      H1988   1.083       .  S
C1989      C1990   1.399       .  A
C1989      C1994   1.398       .  A
C1989      H1999   1.082       .  S
C1990      C1991   1.399       .  A
C1991      C1992   1.394       .  A
C1991      F1996   1.358       .  S
C1992      C1993   1.420       .  A
C1992      H1997   1.079       .  S
C1993      C1994   1.423       .  A
C1994      F1998   1.354       .  S
C1995      C2000   1.403       .  A
C1995      C2004   1.400       .  A
C2000      C2001   1.399       .  A
C2000      F2005   1.357       .  S
C2001      C2002   1.418       .  A
C2001      H2006   1.075       .  S
C2002      C2003   1.422       .  A
C2003      C2004   1.393       .  A
C2003      F2007   1.358       .  S
C2004      H2008   1.083       .  S
C2009      C2014   1.399       .  A
C2009      H2019   1.084       .  S
C2010      C2015   1.482       .  S
C2010      C2011   1.406       .  A
C2011      C2012   1.404       .  A
C2011      F2016   1.358       .  S
C2012      C2013   1.408       .  A
C2012      H2017   1.083       .  S
C2014      F2018   1.357       .  S
C2015      C2024   1.402       .  A
C2020      C2021   1.386       .  A
C2020      F2025   1.358       .  S
C2021      H2026   1.082       .  S
C2022      C2023   1.422       .  A
C2023      C2024   1.408       .  A
C2023      F2027   1.352       .  S
C2024      H2028   1.083       .  S
C2029      C2030   1.400       .  A
C2029      C2034   1.404       .  A
C2029      H2039   1.083       .  S
C2030      C2035   1.480       .  S
C2031      C2032   1.390       .  A
C2031      F2036   1.359       .  S
C2032      H2037   1.070       .  S
C2033      C2034   1.427       .  A
C2034      F2038   1.358       .  S
C2035      C2040   1.404       .  A
C2035      C2044   1.402       .  A
C2040      C2041   1.404       .  A
C2040      F2045   1.357       .  S
C2041      C2042   1.410       .  A
C2041      H2046   1.083       .  S
C2042      C2043   1.409       .  A
C2043      C2044   1.397       .  A
C2043      F2047   1.357       .  S
C2049      C2050   1.396       .  A
C2049      C2054   1.386       .  A
C2049      H2059   1.085       .  S
C2050      C2055   1.475       .  S
C2050      C2051   1.398       .  A
C2051      C2052   1.401       .  A
C2051      F2056   1.357       .  S
C2052      C2053   1.423       .  A
C2052      H2057   1.084       .  S
C2053      C2054   1.425       .  A
C2054      F2058   1.352   1_655  S
C2055      C2060   1.399       .  A
C2055      C2064   1.400       .  A
C2061      H2066   1.069       .  S
C2062      C2063   1.425       .  A
C2063      C2064   1.402       .  A
C2063      F2067   1.357       .  S
C2064      H2068   1.083       .  S
C2069      C2074   1.396       .  A
C2070      C2075   1.494       .  S
C2071      C2072   1.397       .  A
C2072      C2073   1.416       .  A
C2072      H2077   1.077       .  S
C2073      C2074   1.424       .  A
C2074      F2078   1.357       .  S
C2075      C2080   1.406       .  A
C2075      C2084   1.406       .  A
C2080      C2081   1.385       .  A
C2080      F2085   1.357       .  S
C2081      C2082   1.416       .  A
C2081      H2086   1.083       .  S
C2082      C2083   1.421       .  A
C2083      C2084   1.402       .  A
C2083      F2087   1.352       .  S
C2084      H2088   1.082       .  S
