geometry optimzed in LAMMPS
_audit_creation_date              2020-11-30 
_audit_creation_method            'lammps2cif' 
_symmetry_space_group_name_H-M    'P1' 
_symmetry_Int_Tables_number       1 
_symmetry_cell_setting            triclinic 
loop_ 
_symmetry_equiv_pos_as_xyz 
  x,y,z 
_cell_length_a                    37.19527221 
_cell_length_b                    37.76540933538485 
_cell_length_c                    35.09240382870008 
_cell_angle_alpha                 87.66174507799704 
_cell_angle_beta                  88.33766456608066 
_cell_angle_gamma                 120.6045960453393 
loop_ 
_atom_site_label 
_atom_site_type_symbol 
_atom_site_fract_x 
_atom_site_fract_y 
_atom_site_fract_z 
_atom_site_charge 
O1          O  0.18810615  0.23814498  0.30139704    -0.70900
O2          O  0.26165934  0.30200533  0.02909992    -0.71100
O3          O  0.25942774  0.30970319  0.29012656    -0.70900
O4          O  0.18958876  0.22830977  0.04026513    -0.70900
O5          O  0.22399573  0.19718341  0.02895114    -0.70900
O6          O  0.29298078  0.27807394  0.27717257    -0.70900
O7          O  0.29504618  0.26955712  0.01901772    -0.70900
O8          O  0.22110040  0.20594656  0.28847249    -0.71100
V9          V  0.23204608  0.27143629  0.33306625     1.35200
V10         V  0.25304104  0.23581484  0.98649629     1.35200
C11         C  0.19053583  0.21109006  0.28339126     0.78400
C12         C  0.29223398  0.29715846  0.03547542     0.78400
C13         C  0.28468573  0.30590290  0.26822821     0.78300
C14         C  0.19720440  0.20006254  0.04954557     0.78300
O15         O  0.04809311  0.23120423  0.02594559    -0.70900
O16         O  0.04065826  0.31840021  0.29352513    -0.71100
O17         O  0.05049826  0.30300545  0.03196286    -0.70900
O18         O  0.04597930  0.25206921  0.28395766    -0.70900
O19         O  0.48349556  0.21551380  0.29045538    -0.70900
O20         O  0.47356214  0.26290911  0.04114903    -0.70900
O21         O  0.47222449  0.27874892  0.29892560    -0.70900
O22         O  0.49361366  0.20410397  0.03417694    -0.71100
V23         V  0.04080211  0.26653229  0.99191717     1.35200
V24         V  0.48409879  0.23830736  0.99933260     1.35200
C25         C  0.52958886  0.21830051  0.04709166     0.78400
C26         C  0.50442460  0.30993597  0.28305101     0.78400
C27         C  0.50236658  0.29681855  0.05206030     0.78300
C28         C  0.51859125  0.22631384  0.27426031     0.78300
O29         O  0.22918954  0.04726466  0.29474167    -0.70900
O30         O  0.28532929  0.05258806  0.04346648    -0.71100
O31         O  0.30033788  0.04704680  0.30000614    -0.70900
O32         O  0.21077538  0.04614063  0.03317878    -0.70900
O33         O  0.19043024  0.49723419  0.05016597    -0.70900
O34         O  0.23267340  0.44677114  0.31151677    -0.70900
O35         O  0.23993555  0.46517629  0.05763164    -0.70900
O36         O  0.18544081  0.48025541  0.30307777    -0.71100
V37         V  0.26075433  0.04498882  0.33570220     1.35200
V38         V  0.21446323  0.47658288  0.01610226     1.35200
C39         C  0.20521284  0.51467315  0.28408140     0.78400
C40         C  0.27602534  0.49243288  0.06667525     0.78400
C41         C  0.26787531  0.47045707  0.29438029     0.78300
C42         C  0.20995881  0.53499187  0.05659283     0.78300
C43         C  0.47744982  0.35623293  0.19719486     0.87400
C44         C  0.01237422  0.40286244  0.19799929    -0.52800
C45         C  0.02626627  0.42746389  0.16497332     0.10300
C46         C  0.49780053  0.40423877  0.13479592     0.21300
C47         C  0.44064242  0.35677835  0.18154523    -0.53600
C48         C  0.45083487  0.38323403  0.14997777     0.10400
C49         C  0.49526790  0.34340880  0.16401550    -0.53100
C50         C  0.50448611  0.36721357  0.13073081     0.11000
H51         H  0.02526244  0.41392943  0.22537713     0.15500
H52         H  0.50561883  0.42462467  0.10841529     0.01300
H53         H  0.40966806  0.33931327  0.19535031     0.15800
H54         H  0.49826424  0.31625425  0.16631348     0.15600
C55         C  0.48874517  0.14731526  0.19728438     0.87400
C56         C  0.44699202  0.11096677  0.18904748    -0.52800
C57         C  0.44903914  0.08367554  0.16556344     0.10300
C58         C  0.49429727  0.10066205  0.14725470     0.21300
C59         C  0.02179819  0.13463942  0.20284802    -0.53600
C60         C  0.02632367  0.10888502  0.17895372     0.10400
C61         C  0.50678533  0.16951561  0.15823971    -0.53100
C62         C  0.50798887  0.14483105  0.13126203     0.11000
H63         H  0.41835328  0.10515997  0.20406398     0.15500
H64         H  0.49620274  0.08063095  0.12597619     0.01300
H65         H  0.04299490  0.15154874  0.22443132     0.15800
H66         H  0.51324648  0.20064128  0.15158044     0.15600
C67         C  0.13223603  0.13247572  0.20889320     0.87400
C68         C  0.08672927  0.11870453  0.21409954    -0.52800
C69         C  0.06353069  0.10269618  0.18289899     0.10300
C70         C  0.08913767  0.09502094  0.15075409     0.21300
C71         C  0.13050354  0.09288656  0.20286371    -0.53600
C72         C  0.11029710  0.07272586  0.17157989     0.10400
C73         C  0.14888525  0.15813210  0.17059382    -0.53100
C74         C  0.12686473  0.13879937  0.13993474     0.11000
H75         H  0.07480829  0.12302495  0.24094618     0.15500
H76         H  0.07098718  0.07908109  0.12605785     0.01300
H77         H  0.14447968  0.08173105  0.22313675     0.15800
H78         H  0.17622113  0.18900525  0.16796267     0.15600
C79         C  0.13925030  0.99299476  0.18959439     0.87400
C80         C  0.14866261  0.03591751  0.17705473    -0.52800
C81         C  0.11698457  0.03792172  0.15986118     0.10300
C82         C  0.08357151  0.99472859  0.14693056     0.21300
C83         C  0.09655792  0.45965836  0.18983540    -0.53600
C84         C  0.07107620  0.46310468  0.16433046     0.10400
C85         C  0.13635500  0.97375266  0.15200506    -0.53100
C86         C  0.10870245  0.97616999  0.12856168     0.11000
H87         H  0.17684062  0.06289765  0.18551946     0.15500
H88         H  0.06058368  0.99576252  0.12815204     0.01300
H89         H  0.08985135  0.43039378  0.20344841     0.15800
H90         H  0.15816465  0.96432391  0.14258273     0.15600
C91         C  0.34736980  0.99145114  0.20504027     0.87400
C92         C  0.35761364  0.45302068  0.20228127    -0.52800
C93         C  0.38081883  0.46513375  0.16821920     0.10300
C94         C  0.39043467  0.00848670  0.13993107     0.21300
C95         C  0.39187656  0.02730543  0.20537675    -0.53600
C96         C  0.41403493  0.03940634  0.17090547     0.10400
C97         C  0.32561545  0.49270281  0.18284808    -0.53100
C98         C  0.34901846  0.00856781  0.13667572     0.11000
H99         H  0.34575955  0.42306848  0.21709639     0.15500
H100        H  0.40875512  0.01519040  0.11232363     0.01300
H101        H  0.40388162  0.04385329  0.23097517     0.15800
H102        H  0.29477195  0.48909887  0.18578329     0.15600
C103        C  0.35543269  0.37608938  0.10788124     0.87400
C104        C  0.36437357  0.41948094  0.11532109    -0.52800
C105        C  0.38556915  0.43449867  0.14749407     0.10300
C106        C  0.39649723  0.40481805  0.16846745     0.21300
C107        C  0.39854259  0.37965767  0.10615200    -0.53600
C108        C  0.41982399  0.39411351  0.13816278     0.10400
C109        C  0.33259269  0.34994869  0.14528771    -0.53100
C110        C  0.35417494  0.36496952  0.17715442     0.11000
H111        H  0.35057671  0.43452676  0.09954699     0.15500
H112        H  0.41435669  0.41738123  0.19428522     0.01300
H113        H  0.40891942  0.36717459  0.08387842     0.15800
H114        H  0.30233312  0.32163502  0.14625202     0.15600
C115        C  0.29374321  0.48562985  0.10183498    -0.15500
C116        C  0.33317563  0.51131075  0.11185875    -0.30700
H117        H  0.29814487  0.03834536  0.11934136     0.13500
H118        H  0.35507504  0.53664330  0.09211379     0.14100
C119        C  0.32487824  0.47407108  0.25570224    -0.15500
C120        C  0.28355326  0.45681889  0.26234422    -0.30700
H121        H  0.30520221  0.95353858  0.25661312     0.13500
H122        H  0.26209981  0.43915783  0.24096209     0.14100
C123        C  0.17017814  0.99332080  0.21724077    -0.15500
C124        C  0.18738554  0.52342668  0.25031004    -0.30700
H125        H  0.14315793  0.46123853  0.24489644     0.13500
H126        H  0.16559683  0.03527511  0.25203327     0.14100
C127        C  0.19257266  0.55019955  0.08537842    -0.15500
C128        C  0.11631284  0.97538405  0.08753188    -0.30700
H129        H  0.15411107  0.03977775  0.08167718     0.13500
H130        H  0.12946864  0.50794184  0.07580530     0.14100
C131        C  0.49341860  0.31461096  0.08549279    -0.15500
C132        C  0.51497787  0.35458769  0.09407864    -0.30700
H133        H  0.46675606  0.29294529  0.10430969     0.13500
H134        H  0.99104025  0.35352525  0.06577594     0.14100
C135        C  0.50362801  0.33439665  0.25031923    -0.15500
C136        C  0.46973996  0.33010391  0.23367713    -0.30700
H137        H  0.03959720  0.35968832  0.23605783     0.13500
H138        H  0.43832044  0.30877911  0.24578025     0.14100
C139        C  0.48649496  0.17376811  0.22726790    -0.15500
C140        C  0.52121492  0.20484855  0.24108868    -0.30700
H141        H  0.95262233  0.15750923  0.24034273     0.13500
H142        H  0.55191421  0.21316857  0.22891825     0.14100
C143        C  0.51112009  0.15743526  0.09034824    -0.15500
C144        C  0.53776000  0.19681700  0.07837293    -0.30700
H145        H  0.48642308  0.13698355  0.07258051     0.13500
H146        H  0.05354169  0.19533564  0.08926603     0.14100
C147        C  0.32997669  0.35749826  0.07390690    -0.15500
C148        C  0.32272020  0.32081010  0.06329957    -0.30700
H149        H  0.31560595  0.37277426  0.05948413     0.13500
H150        H  0.33845475  0.30650709  0.07693693     0.14100
C151        C  0.30119169  0.33127760  0.23161572    -0.15500
C152        C  0.33950735  0.34368928  0.21606451    -0.30700
H153        H  0.28093989  0.33943731  0.21675596     0.13500
H154        H  0.36104672  0.33939655  0.23304226     0.14100
C155        C  0.15972766  0.18737337  0.25559324    -0.15500
C156        C  0.15796312  0.15391271  0.24193198    -0.30700
H157        H  0.13991409  0.19845830  0.24480151     0.13500
H158        H  0.17702627  0.14254406  0.25411235     0.14100
C159        C  0.13965250  0.15925015  0.10053755    -0.15500
C160        C  0.17865084  0.17310073  0.08528474    -0.30700
H161        H  0.11767992  0.16426208  0.08491605     0.13500
H162        H  0.19873869  0.16484105  0.10033797     0.14100
O163        O  0.19019635  0.21230438  0.62775784    -0.70900
O164        O  0.27537605  0.30634338  0.36486385    -0.71100
O165        O  0.25556751  0.28895415  0.61543528    -0.70900
O166        O  0.20221113  0.23363384  0.37609709    -0.70900
O167        O  0.23525198  0.20155837  0.36302248    -0.70900
O168        O  0.29910798  0.26670424  0.61368420    -0.70900
O169        O  0.30737776  0.27320817  0.35180787    -0.70900
O170        O  0.23340481  0.18965338  0.62394565    -0.71100
V171        V  0.22769469  0.25318926  0.65972230     1.35200
V172        V  0.26352302  0.24036238  0.32035363     1.35200
C173        C  0.20018018  0.18766164  0.61428626     0.78400
C174        C  0.30586056  0.30077349  0.36956721     0.78400
C175        C  0.28656789  0.28954515  0.59900004     0.78300
C176        C  0.20894557  0.20459843  0.38425333     0.78300
O177        O  0.04411111  0.23967892  0.35996196    -0.70900
O178        O  0.04739125  0.31237630  0.62649694    -0.71100
O179        O  0.03779082  0.30771516  0.37000780    -0.70900
O180        O  0.05788428  0.24789260  0.62330638    -0.70900
O181        O  0.50089925  0.21829787  0.62201681    -0.70900
O182        O  0.47433886  0.26895262  0.37582769    -0.70900
O183        O  0.48636068  0.27936446  0.63087059    -0.70900
O184        O  0.48693859  0.20511683  0.36581670    -0.71100
V185        V  0.04081533  0.27874832  0.32717448     1.35200
V186        V  0.48048053  0.24300607  0.33296518     1.35200
C187        C  0.52336842  0.21473583  0.37508910     0.78400
C188        C  0.51952267  0.31079853  0.61679215     0.78400
C189        C  0.50550739  0.30082847  0.38719524     0.78300
C190        C  0.53780151  0.22957547  0.61028245     0.78300
O191        O  0.22891057  0.05517218  0.62953744    -0.70900
O192        O  0.29373202  0.04467081  0.37695314    -0.71100
O193        O  0.30321063  0.06110030  0.63508656    -0.70900
O194        O  0.22164919  0.04589835  0.37042636    -0.70900
O195        O  0.18416425  0.49000236  0.37837457    -0.70900
O196        O  0.22419144  0.43578339  0.64785235    -0.70900
O197        O  0.23295413  0.45689357  0.38839397    -0.70900
O198        O  0.16985303  0.46210669  0.65075082    -0.71100
V199        V  0.26149320  0.05623819  0.67058705     1.35200
V200        V  0.21000588  0.46960320  0.34538613     1.35200
C201        C  0.18477138  0.49428660  0.62886170     0.78400
C202        C  0.26884471  0.48332950  0.39870275     0.78400
C203        C  0.25770623  0.46045265  0.62852190     0.78300
C204        C  0.20380539  0.52766099  0.38545790     0.78300
C205        C  0.49351086  0.36284442  0.53494852     0.87400
C206        C  0.02270481  0.40333892  0.53791002    -0.52800
C207        C  0.03525329  0.42933030  0.50579118     0.10300
C208        C  0.51021533  0.41139824  0.47341900     0.21300
C209        C  0.45676910  0.36675818  0.52396563    -0.53600
C210        C  0.46479992  0.39250490  0.49227795     0.10400
C211        C  0.50598045  0.34843424  0.49949540    -0.53100
C212        C  0.51370079  0.37271442  0.46680588     0.11000
H213        H  0.03673955  0.41268040  0.56515618     0.15500
H214        H  0.51690502  0.43179766  0.44725737     0.01300
H215        H  0.42685532  0.35035866  0.53996227     0.15800
H216        H  0.50747587  0.32042790  0.50020708     0.15600
C217        C  0.51325093  0.16170169  0.52331874     0.87400
C218        C  0.47297405  0.12060646  0.53195296    -0.52800
C219        C  0.46561492  0.08992650  0.50798724     0.10300
C220        C  0.50192046  0.10373575  0.47744189     0.21300
C221        C  0.04362342  0.16114079  0.50333735    -0.53600
C222        C  0.03752116  0.12686561  0.48528921     0.10400
C223        C  0.51106436  0.17293840  0.48222739    -0.53100
C224        C  0.50575127  0.14353698  0.45766268     0.11000
H225        H  0.45056341  0.11812133  0.55390658     0.15500
H226        H  0.49709091  0.07961778  0.45774104     0.01300
H227        H  0.07335180  0.18277616  0.51466963     0.15800
H228        H  0.51298505  0.20176491  0.47314142     0.15600
C229        C  0.12058082  0.13028526  0.54061289     0.87400
C230        C  0.07600567  0.11879534  0.53601755    -0.52800
C231        C  0.06193594  0.10744538  0.50025302     0.10300
C232        C  0.09254716  0.09883018  0.47563255     0.21300
C233        C  0.11764077  0.08967612  0.53714705    -0.53600
C234        C  0.10554313  0.07288825  0.50257038     0.10400
C235        C  0.14687215  0.15796264  0.50483585    -0.53100
C236        C  0.13246827  0.14152666  0.47080185     0.11000
H237        H  0.05949037  0.12614222  0.55745816     0.15500
H238        H  0.08016285  0.08489420  0.44825618     0.01300
H239        H  0.12670897  0.07631652  0.56023500     0.15800
H240        H  0.17377332  0.18874844  0.50649182     0.15600
C241        C  0.14269909  0.99964813  0.52408722     0.87400
C242        C  0.14860349  0.04159713  0.51258851    -0.52800
C243        C  0.11694339  0.04091982  0.49272461     0.10300
C244        C  0.08676205  0.99713756  0.47896795     0.21300
C245        C  0.10550874  0.47072689  0.53074878    -0.53600
C246        C  0.07675261  0.46940508  0.50623915     0.10400
C247        C  0.14367824  0.98239567  0.48623370    -0.53100
C248        C  0.11558953  0.98228940  0.46182173     0.11000
H249        H  0.17331068  0.06938274  0.52407221     0.15500
H250        H  0.06376492  0.99644346  0.45911635     0.01300
H251        H  0.10246107  0.44386829  0.54641559     0.15800
H252        H  0.16743697  0.97514319  0.47776385     0.15600
C253        C  0.35503539  0.00540128  0.54264721     0.87400
C254        C  0.35435138  0.44659452  0.53915347    -0.52800
C255        C  0.37947745  0.46058945  0.50631606     0.10300
C256        C  0.40005745  0.02055670  0.47905000     0.21300
C257        C  0.40002374  0.03976603  0.54436894    -0.53600
C258        C  0.42397825  0.05016447  0.51109784     0.10400
C259        C  0.31450512  0.47676665  0.51469421    -0.53100
C260        C  0.36016949  0.02350795  0.47419633     0.11000
H261        H  0.34536922  0.41751733  0.55460299     0.15500
H262        H  0.41898242  0.02664250  0.45193607     0.01300
H263        H  0.41148354  0.05469051  0.57071960     0.15800
H264        H  0.28237507  0.46978169  0.51559029     0.15600
C265        C  0.36753003  0.37653985  0.44489111     0.87400
C266        C  0.37177143  0.41780982  0.45337196    -0.52800
C267        C  0.38936498  0.43240920  0.48691518     0.10300
C268        C  0.40239820  0.40449742  0.50845790     0.21300
C269        C  0.41227679  0.38410995  0.44563689    -0.53600
C270        C  0.43058356  0.39844050  0.47922940     0.10400
C271        C  0.34369356  0.34764844  0.48072028    -0.53100
C272        C  0.36196883  0.36203926  0.51425647     0.11000
H273        H  0.35738779  0.43166282  0.43667375     0.15500
H274        H  0.41751575  0.41685642  0.53550999     0.01300
H275        H  0.42612697  0.37460197  0.42361893     0.15800
H276        H  0.31520401  0.31797919  0.47931926     0.15600
C277        C  0.28532922  0.47482297  0.43401140    -0.15500
C278        C  0.32531221  0.49812910  0.44410169    -0.30700
H279        H  0.28215769  0.98368188  0.45145590     0.13500
H280        H  0.34825621  0.52268797  0.42430519     0.14100
C281        C  0.31238731  0.46048287  0.58885015    -0.15500
C282        C  0.27175347  0.44788372  0.59464869    -0.30700
H283        H  0.31115316  0.96880610  0.59344327     0.13500
H284        H  0.25046735  0.43579852  0.57185207     0.14100
C285        C  0.17352835  0.00136078  0.55244192    -0.15500
C286        C  0.15810268  0.49751437  0.60050252    -0.30700
H287        H  0.20507326  0.52601846  0.55619114     0.13500
H288        H  0.16100146  0.03660200  0.58967386     0.14100
C289        C  0.18659512  0.54404579  0.41340168    -0.15500
C290        C  0.12347946  0.98023609  0.42112300    -0.30700
H291        H  0.16531616  0.04397037  0.41561130     0.13500
H292        H  0.12322930  0.49664659  0.41301815     0.14100
C293        C  0.49943519  0.31946342  0.42139429    -0.15500
C294        C  0.52134757  0.35973206  0.42905668    -0.30700
H295        H  0.47392434  0.29808786  0.44143209     0.13500
H296        H  0.03908335  0.37940906  0.40624621     0.14100
C297        C  0.52023903  0.33611279  0.58402454    -0.15500
C298        C  0.48676255  0.33571191  0.57036200    -0.30700
H299        H  0.04501333  0.35224663  0.56841725     0.13500
H300        H  0.45589144  0.31691453  0.58463510     0.14100
C301        C  0.51605188  0.19271101  0.55134943    -0.15500
C302        C  0.54512317  0.21022422  0.57758220    -0.30700
H303        H  0.98618761  0.20317169  0.54159888     0.13500
H304        H  0.57342126  0.20882594  0.57705171     0.14100
C305        C  0.50208619  0.15166002  0.41693893    -0.15500
C306        C  0.53168515  0.18848259  0.40096562    -0.30700
H307        H  0.47139735  0.13497006  0.40540775     0.13500
H308        H  0.04469282  0.18578304  0.40650454     0.14100
C309        C  0.34458308  0.35949983  0.40922926    -0.15500
C310        C  0.33761717  0.32352194  0.39705817    -0.30700
H311        H  0.32992120  0.37481517  0.39537257     0.13500
H312        H  0.35334313  0.30876149  0.40982101     0.14100
C313        C  0.30443051  0.31386208  0.56179388    -0.15500
C314        C  0.34565391  0.33849269  0.55245243    -0.30700
H315        H  0.28217341  0.31297388  0.54192318     0.13500
H316        H  0.36782093  0.34309870  0.57389935     0.14100
C317        C  0.17618215  0.15899502  0.58573451    -0.15500
C318        C  0.13812408  0.15079585  0.57686465    -0.30700
H319        H  0.19195547  0.14665800  0.56907594     0.13500
H320        H  0.12154991  0.16209501  0.59379918     0.14100
C321        C  0.15022764  0.16595311  0.43360656    -0.15500
C322        C  0.18825386  0.17586161  0.41867201    -0.30700
H323        H  0.13206793  0.17694092  0.41900541     0.13500
H324        H  0.20492318  0.16255583  0.43229724     0.14100
O325        O  0.17745029  0.23146335  0.96486796    -0.70900
O326        O  0.26439546  0.29491877  0.69206053    -0.71100
O327        O  0.24831105  0.30377008  0.95365715    -0.70900
O328        O  0.19699044  0.21782083  0.70365263    -0.70900
O329        O  0.23747545  0.19205705  0.70060221    -0.70900
O330        O  0.28386934  0.27354811  0.94366775    -0.70900
O331        O  0.30386424  0.26787469  0.69029207    -0.70900
O332        O  0.21223219  0.20060046  0.95373176    -0.71100
V333        V  0.21997677  0.26584483  0.99690438     1.35200
V334        V  0.26762856  0.22957053  0.65717955     1.35200
C335        C  0.18125828  0.20480669  0.94763871     0.78400
C336        C  0.29616220  0.29407213  0.70301886     0.78400
C337        C  0.27545995  0.30097853  0.93348025     0.78300
C338        C  0.20697573  0.19266805  0.71716322     0.78300
O339        O  0.05161826  0.23916793  0.69976713    -0.70900
O340        O  0.03693818  0.30289324  0.95686698    -0.71100
O341        O  0.04007743  0.30482010  0.70336191    -0.70900
O342        O  0.03318701  0.23113989  0.95164427    -0.70900
O343        O  0.49186428  0.21211149  0.95753694    -0.70900
O344        O  0.47995535  0.26460590  0.70759952    -0.70900
O345        O  0.47267590  0.27065686  0.96398457    -0.70900
O346        O  0.49552017  0.20254866  0.69800250    -0.71100
V347        V  0.04802309  0.27538629  0.66339552     1.35200
V348        V  0.49185581  0.24203726  0.66494195     1.35200
C349        C  0.53011373  0.21269847  0.71230872     0.78400
C350        C  0.50366177  0.30253806  0.94764377     0.78400
C351        C  0.50858207  0.29711251  0.72082832     0.78300
C352        C  0.52838138  0.22473758  0.94355587     0.78300
O353        O  0.22155798  0.04550934  0.95814584    -0.70900
O354        O  0.29504608  0.06002544  0.71217076    -0.71100
O355        O  0.29572557  0.05215261  0.96691624    -0.70900
O356        O  0.22001630  0.05377420  0.70499847    -0.70900
O357        O  0.18143700  0.47557639  0.72427197    -0.70900
O358        O  0.23508464  0.45320453  0.98108661    -0.70900
O359        O  0.23615491  0.44914374  0.72374994    -0.70900
O360        O  0.18721596  0.48603798  0.97567896    -0.71100
V361        V  0.25297229  0.04777115  0.00059305     1.35200
V362        V  0.20413302  0.45677023  0.68644440     1.35200
C363        C  0.20558549  0.51996433  0.95587135     0.78400
C364        C  0.27095703  0.47930459  0.73190907     0.78400
C365        C  0.26899538  0.47659651  0.96198558     0.78300
C366        C  0.19807806  0.51386483  0.72801150     0.78300
C367        C  0.47316889  0.34982711  0.86523137     0.87400
C368        C  0.00784516  0.39090167  0.87143742    -0.52800
C369        C  0.02312272  0.41826572  0.84014541     0.10300
C370        C  0.49536470  0.40133638  0.80509037     0.21300
C371        C  0.43668102  0.35137800  0.84973628    -0.53600
C372        C  0.44784248  0.37954850  0.81927221     0.10400
C373        C  0.49213106  0.33916031  0.83146162    -0.53100
C374        C  0.50250514  0.36461935  0.79927220     0.11000
H375        H  0.01795313  0.39932804  0.90008178     0.15500
H376        H  0.50413325  0.42315902  0.77964719     0.01300
H377        H  0.40541584  0.33382311  0.86311923     0.15800
H378        H  0.49583290  0.31239385  0.83287067     0.15600
C379        C  0.50367071  0.15114335  0.86019886     0.87400
C380        C  0.46295191  0.11022739  0.86563487    -0.52800
C381        C  0.45793948  0.08017402  0.84172106     0.10300
C382        C  0.49661710  0.09538337  0.81319039     0.21300
C383        C  0.02521277  0.14122361  0.85656257    -0.53600
C384        C  0.02595206  0.11153327  0.83557000     0.10400
C385        C  0.50553223  0.16434354  0.81887139    -0.53100
C386        C  0.50263867  0.13630840  0.79373424     0.11000
H387        H  0.43889945  0.10704406  0.88606026     0.15500
H388        H  0.49358263  0.07221612  0.79305571     0.01300
H389        H  0.05036211  0.16197830  0.87371742     0.15800
H390        H  0.50880879  0.19382720  0.80999349     0.15600
C391        C  0.12585914  0.12637053  0.87319475     0.87400
C392        C  0.08140026  0.11635487  0.87460168    -0.52800
C393        C  0.06073041  0.10212605  0.84189529     0.10300
C394        C  0.08686479  0.09190712  0.81238902     0.21300
C395        C  0.12067216  0.08505790  0.86888282    -0.53600
C396        C  0.10308780  0.06664745  0.83609802     0.10400
C397        C  0.14739811  0.15183656  0.83541007    -0.53100
C398        C  0.12761378  0.13387975  0.80339910     0.11000
H399        H  0.06818388  0.12231444  0.89980486     0.15500
H400        H  0.07028818  0.07704313  0.78665573     0.01300
H401        H  0.13176013  0.07205499  0.89043919     0.15800
H402        H  0.17643882  0.18140575  0.83417319     0.15600
C403        C  0.13470173  0.98889780  0.85394825     0.87400
C404        C  0.14342725  0.03191280  0.84232603    -0.52800
C405        C  0.11207692  0.03359359  0.82403723     0.10300
C406        C  0.08007197  0.99075611  0.80996223     0.21300
C407        C  0.08899333  0.45845416  0.87156745    -0.53600
C408        C  0.06392477  0.45841740  0.84377688     0.10400
C409        C  0.13359954  0.97093657  0.81603120    -0.53100
C410        C  0.10694111  0.97400460  0.79165463     0.11000
H411        H  0.17030565  0.05891164  0.85257169     0.15500
H412        H  0.05730441  0.99148084  0.79067287     0.01300
H413        H  0.08354229  0.43095722  0.88786263     0.15800
H414        H  0.15695890  0.96341518  0.80681557     0.15600
C415        C  0.34808399  0.99524935  0.87655800     0.87400
C416        C  0.35678032  0.45217005  0.87054782    -0.52800
C417        C  0.38046382  0.46412985  0.83679780     0.10300
C418        C  0.39339800  0.00859908  0.81359634     0.21300
C419        C  0.39332588  0.02878682  0.87850038    -0.53600
C420        C  0.41744138  0.03891654  0.84526317     0.10400
C421        C  0.32099034  0.48698507  0.84746062    -0.53100
C422        C  0.35432196  0.01265056  0.80779738     0.11000
H423        H  0.34561918  0.42260591  0.88594587     0.15500
H424        H  0.41249369  0.01381331  0.78677739     0.01300
H425        H  0.40468363  0.04388720  0.90480579     0.15800
H426        H  0.28939493  0.48153285  0.84868639     0.15600
C427        C  0.35391351  0.37502416  0.77583121     0.87400
C428        C  0.36363414  0.41854742  0.78356498    -0.52800
C429        C  0.38412140  0.43264025  0.81635577     0.10300
C430        C  0.39349155  0.40178031  0.83760394     0.21300
C431        C  0.39667778  0.37773041  0.77507701    -0.53600
C432        C  0.41714335  0.39104489  0.80760999     0.10400
C433        C  0.32973169  0.34857658  0.81272133    -0.53100
C434        C  0.35038925  0.36238822  0.84519124     0.11000
H435        H  0.35103283  0.43445085  0.76733436     0.15500
H436        H  0.41065240  0.41344487  0.86392292     0.01300
H437        H  0.40746461  0.36565173  0.75274381     0.15800
H438        H  0.29912950  0.32076307  0.81288250     0.15600
C439        C  0.29155612  0.47504238  0.76599641    -0.15500
C440        C  0.32952473  0.50408913  0.77649164    -0.30700
H441        H  0.30756203  0.04614248  0.78747059     0.13500
H442        H  0.34942327  0.53103928  0.75748536     0.14100
C443        C  0.32013808  0.47107182  0.92158483    -0.15500
C444        C  0.28079562  0.46231557  0.92802477    -0.30700
H445        H  0.30297458  0.95925266  0.92671418     0.13500
H446        H  0.25882716  0.45136883  0.90567146     0.14100
C447        C  0.16495935  0.98940568  0.88239553    -0.15500
C448        C  0.18533218  0.52703158  0.92316298    -0.30700
H449        H  0.13695415  0.46546377  0.92607216     0.13500
H450        H  0.15362599  0.02616494  0.91868928     0.14100
C451        C  0.18208643  0.52927509  0.75784105    -0.15500
C452        C  0.12045047  0.98021983  0.75105760    -0.30700
H453        H  0.16218146  0.04363938  0.75539491     0.13500
H454        H  0.11833134  0.48510045  0.75322346     0.14100
C455        C  0.49761933  0.31396460  0.75392199    -0.15500
C456        C  0.51580962  0.35401257  0.76259733    -0.30700
H457        H  0.47096715  0.29102139  0.77202748     0.13500
H458        H  0.03823492  0.37258292  0.74100231     0.14100
C459        C  0.50080429  0.32566088  0.91489535    -0.15500
C460        C  0.46610678  0.32214416  0.90044912    -0.30700
H461        H  0.03158334  0.34085973  0.90048122     0.13500
H462        H  0.43510074  0.30116670  0.91356397     0.14100
C463        C  0.50439397  0.18152953  0.88816868    -0.15500
C464        C  0.53517885  0.20378267  0.91175248    -0.30700
H465        H  0.99105052  0.20513633  0.86984020     0.13500
H466        H  0.56556345  0.20661771  0.90863342     0.14100
C467        C  0.50466379  0.14741867  0.75250670    -0.15500
C468        C  0.53541141  0.18543345  0.73983662    -0.30700
H469        H  0.47640612  0.13090597  0.73710449     0.13500
H470        H  0.05219403  0.18864068  0.75037731     0.14100
C471        C  0.32935912  0.35638973  0.74122436    -0.15500
C472        C  0.32251680  0.31928880  0.73258937    -0.30700
H473        H  0.31649321  0.37185954  0.72469803     0.13500
H474        H  0.33720531  0.30554433  0.74903484     0.14100
C475        C  0.29442408  0.32730565  0.89744865    -0.15500
C476        C  0.33366641  0.34017828  0.88366126    -0.30700
H477        H  0.27522759  0.33605375  0.88151865     0.13500
H478        H  0.35425783  0.33507117  0.90132698     0.14100
C479        C  0.15166634  0.18088381  0.91938465    -0.15500
C480        C  0.14936547  0.14662703  0.90745893    -0.30700
H481        H  0.13335626  0.19277086  0.90653617     0.13500
H482        H  0.16669832  0.13425677  0.92153621     0.14100
C483        C  0.14527802  0.15349441  0.76423925    -0.15500
C484        C  0.18545867  0.16653083  0.75287224    -0.30700
H485        H  0.12539733  0.15811671  0.74511639     0.13500
H486        H  0.20384254  0.15874802  0.77116777     0.14100
O487        O  0.18465090  0.72877341  0.29724751    -0.70900
O488        O  0.25605147  0.78756155  0.03905084    -0.71100
O489        O  0.24986837  0.80572123  0.29165279    -0.70900
O490        O  0.18573833  0.71216791  0.03586485    -0.70900
O491        O  0.22360876  0.68512629  0.02230388    -0.70900
O492        O  0.29572253  0.78682583  0.28390956    -0.70900
O493        O  0.29319426  0.75910440  0.02790727    -0.70900
O494        O  0.22982111  0.71111029  0.28021398    -0.71100
V495        V  0.22272099  0.76356314  0.33186388     1.35200
V496        V  0.25807055  0.73183929  0.98796817     1.35200
C497        C  0.19489686  0.70843652  0.27665160     0.78400
C498        C  0.28686082  0.78351210  0.04644835     0.78400
C499        C  0.28172726  0.80977035  0.27338269     0.78300
C500        C  0.19225659  0.68247687  0.04032569     0.78300
O501        O  0.04807823  0.75171732  0.05035248    -0.70900
O502        O  0.03993678  0.81744153  0.30850897    -0.71100
O503        O  0.03341446  0.81441168  0.05259492    -0.70900
O504        O  0.05079600  0.75305065  0.30646403    -0.70900
O505        O  0.48073282  0.71120211  0.30523543    -0.70900
O506        O  0.47116817  0.76719358  0.05274979    -0.70900
O507        O  0.46653892  0.77369136  0.30653940    -0.70900
O508        O  0.48726678  0.70595367  0.04804159    -0.71100
V509        V  0.04007874  0.78389979  0.01299231     1.35200
V510        V  0.47971234  0.74061404  0.01215224     1.35200
C511        C  0.52322083  0.71874352  0.06048507     0.78400
C512        C  0.49922011  0.80531351  0.29192293     0.78400
C513        C  0.50115339  0.80020536  0.06352885     0.78300
C514        C  0.51719813  0.72230812  0.29218193     0.78300
O515        O  0.24064170  0.54141413  0.29465882    -0.70900
O516        O  0.29516660  0.52582720  0.04605118    -0.71100
O517        O  0.28834409  0.50764272  0.30305067    -0.70900
O518        O  0.24566197  0.55820733  0.03999395    -0.70900
O519        O  0.17982394  0.97927533  0.03709591    -0.70900
O520        O  0.26889221  0.98011222  0.30596263    -0.70900
O521        O  0.25520500  0.98582396  0.04854473    -0.70900
O522        O  0.19916797  0.98072048  0.29299635    -0.71100
V523        V  0.26351732  0.52800599  0.33698977     1.35200
V524        V  0.22424120  0.98358862  0.00503852     1.35200
C525        C  0.20401026  0.01443894  0.27938963     0.78400
C526        C  0.28109251  0.02046938  0.06069333     0.78400
C527        C  0.29712756  0.01402442  0.28988600     0.78300
C528        C  0.18007406  0.01175743  0.04528983     0.78300
C529        C  0.47332199  0.85555670  0.20774444     0.87400
C530        C  0.00881365  0.90503617  0.22092169    -0.52800
C531        C  0.02114870  0.92956697  0.18790256     0.10300
C532        C  0.49441693  0.90487607  0.14612652     0.21300
C533        C  0.43631843  0.85553552  0.19113573    -0.53600
C534        C  0.44707825  0.88228632  0.15960495     0.10400
C535        C  0.49316219  0.84464161  0.17478440    -0.53100
C536        C  0.50305909  0.86933160  0.14205754     0.11000
H537        H  0.02270370  0.91561848  0.24795401     0.15500
H538        H  0.50262362  0.92576427  0.12004414     0.01300
H539        H  0.40478923  0.83717231  0.20381110     0.15800
H540        H  0.49707485  0.81800238  0.17674609     0.15600
C541        C  0.49204415  0.64529218  0.21284115     0.87400
C542        C  0.45067128  0.60683737  0.20869163    -0.52800
C543        C  0.45046304  0.58107464  0.18223987     0.10300
C544        C  0.49308798  0.60072337  0.15789916     0.21300
C545        C  0.01952682  0.62865728  0.21897921    -0.53600
C546        C  0.02400485  0.61001384  0.18769508     0.10400
C547        C  0.50259202  0.66760276  0.17335578    -0.53100
C548        C  0.50175106  0.64398353  0.14427383     0.11000
H549        H  0.42334876  0.60046853  0.22636185     0.15500
H550        H  0.49319583  0.58160825  0.13473958     0.01300
H551        H  0.03965027  0.63692616  0.24282964     0.15800
H552        H  0.50693896  0.69818934  0.16858977     0.15600
C553        C  0.14203690  0.65151660  0.18958296     0.87400
C554        C  0.10072871  0.64984251  0.19451992    -0.52800
C555        C  0.06792406  0.61901765  0.17703373     0.10300
C556        C  0.08272396  0.59556890  0.15088653     0.21300
C557        C  0.13294280  0.60815758  0.19919036    -0.53600
C558        C  0.10215771  0.57785595  0.17928898     0.10400
C559        C  0.15237601  0.65888108  0.14734178    -0.53100
C560        C  0.12198834  0.63042077  0.12616515     0.11000
H561        H  0.09849977  0.67213717  0.21138875     0.15500
H562        H  0.05780574  0.57205189  0.13409125     0.01300
H563        H  0.15219667  0.60327135  0.21883676     0.15800
H564        H  0.18106418  0.68543623  0.13490371     0.15600
C565        C  0.13248889  0.49970771  0.20159105     0.87400
C566        C  0.11287491  0.52524181  0.21226951    -0.52800
C567        C  0.09458079  0.53449999  0.18299230     0.10300
C568        C  0.08972598  0.50870459  0.14808462     0.21300
C569        C  0.09455345  0.96947144  0.20734433    -0.53600
C570        C  0.06429225  0.96719694  0.18410235     0.10400
C571        C  0.15837793  0.51992028  0.16433037    -0.53100
C572        C  0.13591801  0.52351762  0.13557234     0.11000
H573        H  0.11849408  0.53940633  0.23942211     0.15500
H574        H  0.07142070  0.51211765  0.12529538     0.01300
H575        H  0.08812166  0.95070856  0.23363752     0.15800
H576        H  0.19018497  0.52623650  0.16005094     0.15600
C577        C  0.34700100  0.48416568  0.21624299     0.87400
C578        C  0.35302977  0.95659592  0.19339527    -0.52800
C579        C  0.37617609  0.96519494  0.15976180     0.10300
C580        C  0.39206427  0.50859787  0.15134101     0.21300
C581        C  0.38932248  0.52295611  0.21752340    -0.53600
C582        C  0.41287601  0.53794906  0.18385828     0.10400
C583        C  0.32738424  0.00079324  0.17115917    -0.53100
C584        C  0.34878253  0.50461068  0.14864323     0.11000
H585        H  0.33970460  0.92761583  0.21031817     0.15500
H586        H  0.41098805  0.51851548  0.12378829     0.01300
H587        H  0.39990293  0.53759811  0.24418251     0.15800
H588        H  0.29697553  0.99820110  0.17411616     0.15600
C589        C  0.35092300  0.86858222  0.11328547     0.87400
C590        C  0.36068674  0.91313054  0.11385623    -0.52800
C591        C  0.38238006  0.93297383  0.14432116     0.10300
C592        C  0.39337219  0.90639806  0.17069079     0.21300
C593        C  0.39362122  0.87147526  0.11403373    -0.53600
C594        C  0.41570301  0.89094684  0.14444017     0.10400
C595        C  0.32861202  0.84818928  0.15263119    -0.53100
C596        C  0.35105104  0.86783270  0.18285989     0.11000
H597        H  0.34657048  0.92570232  0.09513761     0.15500
H598        H  0.41187515  0.92278087  0.19512801     0.01300
H599        H  0.40320171  0.85541644  0.09500162     0.15800
H600        H  0.29840850  0.81980971  0.15614203     0.15600
C601        C  0.30364117  0.02355175  0.09583116    -0.15500
C602        C  0.33062853  0.00978581  0.09948785    -0.30700
H603        H  0.27305858  0.45876806  0.12072278     0.13500
H604        H  0.33885135  0.99826459  0.07488522     0.14100
C605        C  0.32313578  0.98421499  0.24249384    -0.15500
C606        C  0.32359080  0.01656229  0.25734577    -0.30700
H607        H  0.34403117  0.49003955  0.27915071     0.13500
H608        H  0.34213818  0.04693051  0.24264036     0.14100
C609        C  0.15503387  0.49276321  0.23370297    -0.15500
C610        C  0.17856340  0.01548434  0.24848905    -0.30700
H611        H  0.18456015  0.97494022  0.21236702     0.13500
H612        H  0.20061114  0.55512596  0.23908480     0.14100
C613        C  0.14717393  0.01066049  0.07039158    -0.15500
C614        C  0.15134570  0.52904136  0.09528507    -0.30700
H615        H  0.21436631  0.57319697  0.10363595     0.13500
H616        H  0.11072015  0.94625498  0.07747083     0.14100
C617        C  0.49301961  0.81816551  0.09683138    -0.15500
C618        C  0.51467208  0.85788009  0.10553300    -0.30700
H619        H  0.46603241  0.79654816  0.11540253     0.13500
H620        H  0.03643449  0.88108239  0.09302138     0.14100
C621        C  0.49927560  0.83068540  0.25924282    -0.15500
C622        C  0.46556893  0.82818249  0.24345967    -0.30700
H623        H  0.03469776  0.85657424  0.25194317     0.13500
H624        H  0.43409678  0.80700570  0.25550841     0.14100
C625        C  0.48974185  0.66936118  0.24540336    -0.15500
C626        C  0.52313266  0.70132097  0.25986718    -0.30700
H627        H  0.95790545  0.65720203  0.26382009     0.13500
H628        H  0.55447025  0.71201360  0.24782831     0.14100
C629        C  0.50300364  0.65783240  0.10413032    -0.15500
C630        C  0.53013013  0.69714067  0.09245006    -0.30700
H631        H  0.47809965  0.63773462  0.08635852     0.13500
H632        H  0.05011532  0.71375231  0.11246598     0.14100
C633        C  0.32482976  0.84562819  0.08114188    -0.15500
C634        C  0.31498069  0.80681466  0.07587939    -0.30700
H635        H  0.31281830  0.86050669  0.06257292     0.13500
H636        H  0.32862527  0.79242740  0.09287173     0.14100
C637        C  0.29892463  0.83710995  0.23799323    -0.15500
C638        C  0.33786370  0.85091721  0.22317534    -0.30700
H639        H  0.27765209  0.84274594  0.22183837     0.13500
H640        H  0.36017051  0.84839717  0.24059535     0.14100
C641        C  0.16539910  0.68033458  0.25110465    -0.15500
C642        C  0.17472070  0.68227923  0.21370709    -0.30700
H643        H  0.13422316  0.65815866  0.26329067     0.13500
H644        H  0.20513103  0.70582779  0.20105381     0.14100
C645        C  0.12890854  0.63788756  0.08398128    -0.15500
C646        C  0.16666036  0.64714950  0.06841204    -0.30700
H647        H  0.11096335  0.64932159  0.06968902     0.13500
H648        H  0.18348749  0.63435745  0.08272069     0.14100
O649        O  0.17805209  0.73530312  0.63094611    -0.70900
O650        O  0.25976204  0.79953167  0.36759135    -0.71100
O651        O  0.24735208  0.80925372  0.62619127    -0.70900
O652        O  0.19240080  0.72051316  0.37097498    -0.70900
O653        O  0.23068831  0.69462864  0.35486269    -0.70900
O654        O  0.28866668  0.78583358  0.61345123    -0.70900
O655        O  0.29740912  0.77110484  0.35964956    -0.70900
O656        O  0.21855280  0.71384902  0.60909631    -0.71100
V657        V  0.21922664  0.76578727  0.66524920     1.35200
V658        V  0.26281770  0.74151717  0.32003205     1.35200
C659        C  0.18545230  0.71522994  0.60741589     0.78400
C660        C  0.29082209  0.79638331  0.37646826     0.78400
C661        C  0.27720022  0.81153673  0.60581052     0.78300
C662        C  0.19973824  0.69123641  0.37425386     0.78300
O663        O  0.05011382  0.74993278  0.38375945    -0.70900
O664        O  0.03979033  0.81661902  0.64221046    -0.71100
O665        O  0.03788916  0.81420934  0.38525834    -0.70900
O666        O  0.05090201  0.75227690  0.63995018    -0.70900
O667        O  0.47838059  0.70925966  0.64092373    -0.70900
O668        O  0.46197469  0.76649614  0.38374650    -0.70900
O669        O  0.46356478  0.77157487  0.64215367    -0.70900
O670        O  0.47692878  0.70409981  0.38222218    -0.71100
V671        V  0.04343948  0.78284572  0.34604890     1.35200
V672        V  0.47281650  0.73969977  0.34449158     1.35200
C673        C  0.51168956  0.71610094  0.39697785     0.78400
C674        C  0.49535617  0.80298707  0.62595033     0.78400
C675        C  0.49150642  0.79892242  0.39604920     0.78300
C676        C  0.51404294  0.72009860  0.62595638     0.78300
O677        O  0.22214070  0.52289752  0.63244448    -0.70900
O678        O  0.28896220  0.51732790  0.37908379    -0.71100
O679        O  0.27761219  0.49775723  0.63668247    -0.70900
O680        O  0.24027822  0.55058198  0.37029933    -0.70900
O681        O  0.18309791  0.97939093  0.36828521    -0.70900
O682        O  0.27519527  0.99449300  0.64072436    -0.70900
O683        O  0.25357471  0.97805915  0.38250915    -0.70900
O684        O  0.20190602  0.98879082  0.62986490    -0.71100
V685        V  0.25303908  0.51681967  0.67227668     1.35200
V686        V  0.22697595  0.98074956  0.33767910     1.35200
C687        C  0.20449182  0.02135177  0.61551325     0.78400
C688        C  0.28359302  0.01054050  0.39454112     0.78400
C689        C  0.30226302  0.02896087  0.62492793     0.78300
C690        C  0.18777239  0.01288235  0.37945801     0.78300
C691        C  0.46941302  0.85504825  0.54317375     0.87400
C692        C  0.01235628  0.90532362  0.55203165    -0.52800
C693        C  0.02489454  0.93033032  0.51919272     0.10300
C694        C  0.49142031  0.90513906  0.48208861     0.21300
C695        C  0.43373474  0.85932223  0.52874792    -0.53600
C696        C  0.44508729  0.88633259  0.49729706     0.10400
C697        C  0.48491748  0.84164143  0.50875005    -0.53100
C698        C  0.49569306  0.86709317  0.47649302     0.11000
H699        H  0.02589109  0.91549936  0.57925259     0.15500
H700        H  0.50003415  0.92612365  0.45604500     0.01300
H701        H  0.40254763  0.84277304  0.54228726     0.15800
H702        H  0.48610545  0.81346244  0.50964000     0.15600
C703        C  0.48324613  0.63773869  0.55047123     0.87400
C704        C  0.44137267  0.59950233  0.54767037    -0.52800
C705        C  0.43901617  0.57464899  0.51929742     0.10300
C706        C  0.48019781  0.59514350  0.49233240     0.21300
C707        C  0.01745922  0.62428156  0.55096066    -0.53600
C708        C  0.02082662  0.60701848  0.51794963     0.10400
C709        C  0.49115281  0.66117119  0.51166278    -0.53100
C710        C  0.48816522  0.63865451  0.48099855     0.11000
H711        H  0.41559654  0.59334240  0.56730891     0.15500
H712        H  0.47857072  0.57675990  0.46785895     0.01300
H713        H  0.03971998  0.63296710  0.57317270     0.15800
H714        H  0.49586818  0.69202774  0.50876983     0.15600
C715        C  0.13811538  0.65947434  0.51922263     0.87400
C716        C  0.09642016  0.65678336  0.51811864    -0.52800
C717        C  0.06561213  0.62270808  0.50227891     0.10300
C718        C  0.08433114  0.59945757  0.48022353     0.21300
C719        C  0.12965736  0.61706886  0.53303380    -0.53600
C720        C  0.10285202  0.58468336  0.51220641     0.10400
C721        C  0.15253412  0.66469517  0.47822345    -0.53100
C722        C  0.12496920  0.63445517  0.45654183     0.11000
H723        H  0.09113660  0.67884029  0.53243635     0.15500
H724        H  0.06170849  0.57462573  0.46287473     0.01300
H725        H  0.14753253  0.61524566  0.55579211     0.15800
H726        H  0.18143759  0.69166225  0.46670361     0.15600
C727        C  0.14281157  0.51291687  0.53533876     0.87400
C728        C  0.12420545  0.53928863  0.54474411    -0.52800
C729        C  0.10101353  0.54346967  0.51699063     0.10300
C730        C  0.09206277  0.51253917  0.48498264     0.21300
C731        C  0.09754433  0.97268657  0.54004764    -0.53600
C732        C  0.06745447  0.96872246  0.51577949     0.10400
C733        C  0.16309949  0.52753599  0.49517340    -0.53100
C734        C  0.13652039  0.52576207  0.46807868     0.11000
H735        H  0.13239627  0.55570932  0.57047521     0.15500
H736        H  0.07043057  0.51214657  0.46365414     0.01300
H737        H  0.09123433  0.95385940  0.56626743     0.15800
H738        H  0.19435758  0.53329412  0.48818125     0.15600
C739        C  0.33640613  0.47318302  0.55014177     0.87400
C740        C  0.35862207  0.96892042  0.53152658    -0.52800
C741        C  0.38231507  0.97631103  0.49838998     0.10300
C742        C  0.38519048  0.50137571  0.48754299     0.21300
C743        C  0.37466071  0.51568760  0.55211680    -0.53600
C744        C  0.40067361  0.53192818  0.51971067     0.10400
C745        C  0.33765090  0.01650898  0.50795144    -0.53100
C746        C  0.33977276  0.49124079  0.48170010     0.11000
H747        H  0.34289916  0.93945864  0.54796502     0.15500
H748        H  0.40577447  0.51285567  0.46094910     0.01300
H749        H  0.38093166  0.53033714  0.57893486     0.15800
H750        H  0.30893093  0.01740709  0.50995206     0.15600
C751        C  0.35253298  0.87933681  0.44791286     0.87400
C752        C  0.36409891  0.92441575  0.45055959    -0.52800
C753        C  0.38478164  0.94189164  0.48239756     0.10300
C754        C  0.39263926  0.91248891  0.50814363     0.21300
C755        C  0.39428702  0.88021530  0.45003889    -0.53600
C756        C  0.41491320  0.89691006  0.48198745     0.10400
C757        C  0.32794359  0.85742694  0.48616048    -0.53100
C758        C  0.34909816  0.87463518  0.51780236     0.11000
H759        H  0.35241339  0.93931112  0.43166122     0.15500
H760        H  0.40999410  0.92669244  0.53380049     0.01300
H761        H  0.40411889  0.86477903  0.43048295     0.15800
H762        H  0.29726262  0.82956783  0.48789386     0.15600
C763        C  0.30325513  0.00749049  0.43006479    -0.15500
C764        C  0.34457649  0.02943621  0.43669641    -0.30700
H765        H  0.26323476  0.44851238  0.45275510     0.13500
H766        H  0.36700700  0.05022233  0.41423762     0.14100
C767        C  0.32982255  0.99934949  0.57917548    -0.15500
C768        C  0.33005800  0.03210016  0.59313948    -0.30700
H769        H  0.33127063  0.46911467  0.61368260     0.13500
H770        H  0.34931005  0.06243834  0.57853206     0.14100
C771        C  0.17224777  0.51352756  0.56465515    -0.15500
C772        C  0.17761090  0.02023261  0.58514963    -0.30700
H773        H  0.19171275  0.98679523  0.54664949     0.13500
H774        H  0.12484569  0.48279747  0.60824414     0.14100
C775        C  0.15616226  0.01433693  0.40420650    -0.15500
C776        C  0.14663146  0.52256376  0.42765537    -0.30700
H777        H  0.20913076  0.57122001  0.42729696     0.13500
H778        H  0.11550774  0.95027315  0.41143754     0.14100
C779        C  0.48203954  0.81733435  0.42837205    -0.15500
C780        C  0.50667998  0.85577482  0.43958265    -0.30700
H781        H  0.45275271  0.79706584  0.44482199     0.13500
H782        H  0.04015966  0.88231334  0.42355364     0.14100
C783        C  0.49423673  0.82662753  0.59237358    -0.15500
C784        C  0.46101270  0.82694567  0.57861884    -0.30700
H785        H  0.03660429  0.85570005  0.58464336     0.13500
H786        H  0.42996589  0.80861802  0.59261219     0.14100
C787        C  0.48395083  0.66187416  0.58437097    -0.15500
C788        C  0.51786640  0.69680530  0.59444808    -0.30700
H789        H  0.95914795  0.65416292  0.60001938     0.13500
H790        H  0.54781648  0.70875015  0.57879610     0.14100
C791        C  0.48874944  0.65441736  0.44147384    -0.15500
C792        C  0.51597237  0.69405373  0.43048545    -0.30700
H793        H  0.46480621  0.63452413  0.42281475     0.13500
H794        H  0.05029411  0.71000373  0.44569311     0.14100
C795        C  0.32759322  0.85837340  0.41395677    -0.15500
C796        C  0.31801270  0.81985618  0.40686962    -0.30700
H797        H  0.31642621  0.87430935  0.39576982     0.13500
H798        H  0.33106393  0.80491162  0.42393642     0.14100
C799        C  0.29486788  0.84030590  0.57130881    -0.15500
C800        C  0.33425923  0.85521632  0.55726947    -0.30700
H801        H  0.27386318  0.84653288  0.55535467     0.13500
H802        H  0.35605300  0.85228416  0.57508330     0.14100
C803        C  0.15545424  0.69249697  0.57974594    -0.15500
C804        C  0.16791721  0.69191720  0.54376050    -0.30700
H805        H  0.12280538  0.67358322  0.58983666     0.13500
H806        H  0.20041368  0.71206257  0.53357967     0.14100
C807        C  0.13513145  0.64153820  0.41459043    -0.15500
C808        C  0.17526023  0.65538403  0.40213848    -0.30700
H809        H  0.11566099  0.64900439  0.39760025     0.13500
H810        H  0.19366416  0.64613983  0.41879621     0.14100
O811        O  0.18476969  0.72836200  0.96185633    -0.70900
O812        O  0.25979757  0.79788898  0.70031975    -0.71100
O813        O  0.25397170  0.80297004  0.96419601    -0.70900
O814        O  0.18791738  0.72165496  0.70349842    -0.70900
O815        O  0.22094645  0.69215249  0.68222945    -0.70900
O816        O  0.29327188  0.77703104  0.95248239    -0.70900
O817        O  0.29242943  0.76535232  0.68731140    -0.70900
O818        O  0.22481719  0.70366967  0.94771350    -0.71100
V819        V  0.22099620  0.75737124  0.00011334     1.35200
V820        V  0.25453459  0.73981273  0.64852636     1.35200
C821        C  0.19278522  0.70594483  0.94199072     0.78400
C822        C  0.28983444  0.79191249  0.70596930     0.78400
C823        C  0.28447709  0.80482888  0.94535985     0.78300
C824        C  0.19231153  0.69043715  0.70407101     0.78300
O825        O  0.04920178  0.74863934  0.71716404    -0.70900
O826        O  0.03549801  0.81797802  0.97564183    -0.71100
O827        O  0.03617332  0.81234623  0.71919176    -0.70900
O828        O  0.04854903  0.75487159  0.97315559    -0.70900
O829        O  0.48511916  0.71201618  0.97188640    -0.70900
O830        O  0.46400624  0.76713739  0.71960198    -0.70900
O831        O  0.47022117  0.77375491  0.97591654    -0.70900
O832        O  0.48025072  0.70551180  0.71721770    -0.71100
V833        V  0.04272429  0.78166446  0.67965975     1.35200
V834        V  0.47280859  0.73932064  0.67999625     1.35200
C835        C  0.51646491  0.71805412  0.72899222     0.78400
C836        C  0.50187530  0.80504379  0.95953275     0.78400
C837        C  0.49410365  0.79981854  0.73092977     0.78300
C838        C  0.52078820  0.72279905  0.95705325     0.78300
O839        O  0.24178116  0.54719801  0.96437757    -0.70900
O840        O  0.28554359  0.51291710  0.71182528    -0.71100
O841        O  0.29036914  0.51400478  0.96990211    -0.70900
O842        O  0.23036372  0.53845228  0.70724817    -0.70900
O843        O  0.18801266  0.98695343  0.70536552    -0.70900
O844        O  0.26653746  0.98540613  0.97237920    -0.70900
O845        O  0.26330303  0.99315594  0.71713480    -0.70900
O846        O  0.19292179  0.97882393  0.96146910    -0.71100
V847        V  0.26732966  0.53511149  0.00531187     1.35200
V848        V  0.23274728  0.99209263  0.67349921     1.35200
C849        C  0.19652524  0.01111327  0.94534865     0.78400
C850        C  0.29009535  0.02753604  0.72923286     0.78400
C851        C  0.29448123  0.01981476  0.95709032     0.78300
C852        C  0.18858831  0.01906278  0.71527614     0.78300
C853        C  0.47205725  0.85551549  0.87922311     0.87400
C854        C  0.00335977  0.90265669  0.88457522    -0.52800
C855        C  0.01596862  0.92669929  0.85116624     0.10300
C856        C  0.49104641  0.90494378  0.81823497     0.21300
C857        C  0.43500076  0.85785011  0.86581196    -0.53600
C858        C  0.44452264  0.88404762  0.83406532     0.10400
C859        C  0.48810807  0.84307722  0.84438590    -0.53100
C860        C  0.49729056  0.86809498  0.81205531     0.11000
H861        H  0.01710156  0.91380099  0.91156155     0.15500
H862        H  0.49821463  0.92560197  0.79219707     0.01300
H863        H  0.40417599  0.84058512  0.88020581     0.15800
H864        H  0.49076073  0.81570341  0.84513369     0.15600
C865        C  0.48981859  0.64278480  0.88027293     0.87400
C866        C  0.44756694  0.60554188  0.87607842    -0.52800
C867        C  0.44606884  0.57964544  0.84911697     0.10300
C868        C  0.48841685  0.59838337  0.82434141     0.21300
C869        C  0.02008054  0.62855845  0.88563382    -0.53600
C870        C  0.02374204  0.60969921  0.85398020     0.10400
C871        C  0.50080222  0.66580701  0.84114111    -0.53100
C872        C  0.49849570  0.64233536  0.81146297     0.11000
H873        H  0.42085409  0.60028875  0.89400382     0.15500
H874        H  0.48745826  0.57922757  0.80078487     0.01300
H875        H  0.04120015  0.63753057  0.90874639     0.15800
H876        H  0.50597280  0.69677843  0.83713761     0.15600
C877        C  0.14198740  0.65259678  0.85326249     0.87400
C878        C  0.10058563  0.65068339  0.85824795    -0.52800
C879        C  0.06766216  0.61947254  0.84144103     0.10300
C880        C  0.08265601  0.59627852  0.81487331     0.21300
C881        C  0.13354726  0.60947562  0.86245563    -0.53600
C882        C  0.10221163  0.57852777  0.84342723     0.10400
C883        C  0.15237147  0.66021295  0.81130230    -0.53100
C884        C  0.12213063  0.63187129  0.78992089     0.11000
H885        H  0.09834074  0.67311860  0.87490217     0.15500
H886        H  0.05762948  0.57268587  0.79822336     0.01300
H887        H  0.15329783  0.60523301  0.88196913     0.15800
H888        H  0.18078232  0.68732796  0.79920415     0.15600
C889        C  0.12683067  0.49922768  0.87785117     0.87400
C890        C  0.10963031  0.52761859  0.88322106    -0.52800
C891        C  0.09180247  0.53415085  0.85185992     0.10300
C892        C  0.08365923  0.50187780  0.82138854     0.21300
C893        C  0.08966869  0.96415097  0.87038118    -0.53600
C894        C  0.06009230  0.96251073  0.84672819     0.10400
C895        C  0.15134560  0.51228972  0.83920518    -0.53100
C896        C  0.12847880  0.51217310  0.80915379     0.11000
H897        H  0.11614447  0.54500676  0.90854099     0.15500
H898        H  0.06506524  0.50265046  0.79753043     0.01300
H899        H  0.08263191  0.94494222  0.89649879     0.15800
H900        H  0.18222170  0.51602795  0.83559103     0.15600
C901        C  0.34270160  0.48156025  0.88231499     0.87400
C902        C  0.35068893  0.95807813  0.86637691    -0.52800
C903        C  0.37449032  0.96445264  0.83374275     0.10300
C904        C  0.38952914  0.50634778  0.81842890     0.21300
C905        C  0.38306448  0.52218907  0.88353272    -0.53600
C906        C  0.40781888  0.53700204  0.85043937     0.10400
C907        C  0.33164177  0.00668219  0.84126995    -0.53100
C908        C  0.34528705  0.49947257  0.81391840     0.11000
H909        H  0.33415881  0.92880580  0.88293303     0.15500
H910        H  0.40927389  0.51646166  0.79134108     0.01300
H911        H  0.39160209  0.53726944  0.91017339     0.15800
H912        H  0.30235891  0.00653473  0.84260107     0.15600
C913        C  0.35192119  0.87078574  0.77917218     0.87400
C914        C  0.35881114  0.91382140  0.78486733    -0.52800
C915        C  0.37550138  0.92904000  0.81862355     0.10300
C916        C  0.38361162  0.89948835  0.84382471     0.21300
C917        C  0.39515126  0.87532562  0.78371918    -0.53600
C918        C  0.41158402  0.89003721  0.81795087     0.10400
C919        C  0.32514815  0.84387262  0.81463396    -0.53100
C920        C  0.34155927  0.85848057  0.84851086     0.11000
H921        H  0.34856373  0.92953277  0.76531344     0.15500
H922        H  0.39706943  0.91163097  0.87150005     0.01300
H923        H  0.40924610  0.86407637  0.76367951     0.15800
H924        H  0.29674231  0.81413906  0.81295154     0.15600
C925        C  0.31231179  0.03017432  0.76460735    -0.15500
C926        C  0.33784217  0.01476063  0.76961371    -0.30700
H927        H  0.27348182  0.44711584  0.78447947     0.13500
H928        H  0.34560864  0.00200124  0.74572532     0.14100
C929        C  0.32249982  0.98976630  0.91260913    -0.15500
C930        C  0.32309728  0.02277347  0.92620256    -0.30700
H931        H  0.33959045  0.47848121  0.94600458     0.13500
H932        H  0.34316258  0.05308578  0.91184838     0.14100
C933        C  0.14998864  0.49560398  0.91107087    -0.15500
C934        C  0.16970604  0.00921085  0.91469743    -0.30700
H935        H  0.18232309  0.97394848  0.87690392     0.13500
H936        H  0.19967261  0.55740968  0.90846265     0.14100
C937        C  0.15473940  0.01653080  0.73999764    -0.15500
C938        C  0.14151389  0.50900879  0.76988959    -0.30700
H939        H  0.20485213  0.55494302  0.77320342     0.13500
H940        H  0.11379143  0.95284084  0.73650586     0.14100
C941        C  0.48585962  0.81771338  0.76464242    -0.15500
C942        C  0.50806447  0.85709969  0.77457229    -0.30700
H943        H  0.45858875  0.79606848  0.78289581     0.13500
H944        H  0.03311270  0.87988118  0.75681988     0.14100
C945        C  0.49982470  0.82922568  0.92716419    -0.15500
C946        C  0.46550511  0.82789520  0.91432345    -0.30700
H947        H  0.03017378  0.85587496  0.91828206     0.13500
H948        H  0.43478759  0.80820690  0.92853082     0.14100
C949        C  0.48977876  0.66750964  0.91302861    -0.15500
C950        C  0.52436613  0.70040000  0.92491641    -0.30700
H951        H  0.95811389  0.65553610  0.93284139     0.13500
H952        H  0.55480746  0.71077099  0.91085007     0.14100
C953        C  0.49831977  0.65675971  0.77175474    -0.15500
C954        C  0.52408414  0.69656155  0.76060258    -0.30700
H955        H  0.47361418  0.63637843  0.75396017     0.13500
H956        H  0.05009942  0.70983909  0.77890086     0.14100
C957        C  0.33041227  0.85247330  0.74315966    -0.15500
C958        C  0.32041332  0.81428378  0.73453295    -0.30700
H959        H  0.31888612  0.86892531  0.72613385     0.13500
H960        H  0.33319256  0.79824980  0.75030697     0.14100
C961        C  0.30763985  0.83758620  0.91442571    -0.15500
C962        C  0.32554978  0.83084751  0.88394729    -0.30700
H963        H  0.30550067  0.86514391  0.91444935     0.13500
H964        H  0.32368255  0.80124372  0.88270216     0.14100
C965        C  0.16353412  0.68041204  0.91516105    -0.15500
C966        C  0.17406588  0.68304321  0.87794339    -0.30700
H967        H  0.13203632  0.65829105  0.92663720     0.13500
H968        H  0.20499981  0.70623994  0.86609642     0.14100
C969        C  0.12918097  0.64187634  0.74776546    -0.15500
C970        C  0.16780704  0.65414894  0.73176946    -0.30700
H971        H  0.10981734  0.65212332  0.73438863     0.13500
H972        H  0.18584992  0.64215863  0.74503512     0.14100
O973        O  0.68789386  0.23177285  0.30252251    -0.70900
O974        O  0.76035181  0.29774130  0.02997358    -0.71100
O975        O  0.75743203  0.30500244  0.28725397    -0.70900
O976        O  0.68873211  0.22181513  0.03504504    -0.70900
O977        O  0.72537485  0.19316097  0.02280715    -0.70900
O978        O  0.79655029  0.27829804  0.27855367    -0.70900
O979        O  0.79571340  0.26726989  0.01992117    -0.70900
O980        O  0.72577813  0.20514597  0.28697287    -0.71100
V981        V  0.73202021  0.26875025  0.33184544     1.35200
V982        V  0.75677880  0.23556616  0.98404504     1.35200
C983        C  0.69295067  0.20673236  0.28371648     0.78400
C984        C  0.79130686  0.29370813  0.03697228     0.78400
C985        C  0.78570797  0.30368760  0.26754019     0.78300
C986        C  0.69568939  0.19260335  0.04175742     0.78300
O987        O  0.55839293  0.25367471  0.03488636    -0.70900
O988        O  0.53988434  0.31896716  0.29376805    -0.71100
O989        O  0.53832350  0.31288543  0.03512490    -0.70900
O990        O  0.55110281  0.25551596  0.28738981    -0.70900
O991        O  0.97816399  0.21465276  0.28533977    -0.70900
O992        O  0.98324334  0.27360838  0.04256601    -0.70900
O993        O  0.97273818  0.28105797  0.29464792    -0.70900
O994        O  0.98172527  0.20024069  0.04268338    -0.71100
V995        V  0.54755949  0.28305271  0.99669078     1.35200
V996        V  0.97642123  0.23531126  0.00506077     1.35200
C997        C  0.01719989  0.20348837  0.04597642     0.78400
C998        C  0.00662578  0.31170178  0.28083959     0.78400
C999        C  0.01971915  0.30093934  0.05067021     0.78300
C1000       C  0.01326014  0.22456445  0.26956791     0.78300
O1001       O  0.73827216  0.05028697  0.29976539    -0.70900
O1002       O  0.80001921  0.05973366  0.03987651    -0.71100
O1003       O  0.80555162  0.04410909  0.30610396    -0.70900
O1004       O  0.72822315  0.05921837  0.03651966    -0.70900
O1005       O  0.68736883  0.48939168  0.05063448    -0.70900
O1006       O  0.73267364  0.44637812  0.31303814    -0.70900
O1007       O  0.73719015  0.45754967  0.05832090    -0.70900
O1008       O  0.68644249  0.48076378  0.30442395    -0.71100
V1009       V  0.76578901  0.04279827  0.34145400     1.35200
V1010       V  0.71205579  0.46920628  0.01656852     1.35200
C1011       C  0.70619152  0.51454625  0.28451276     0.78400
C1012       C  0.77322308  0.48478583  0.06756544     0.78400
C1013       C  0.76752546  0.46908206  0.29499623     0.78300
C1014       C  0.70681214  0.52704501  0.05749421     0.78300
C1015       C  0.98221941  0.35743820  0.19344619     0.87400
C1016       C  0.50826974  0.40159397  0.20229060    -0.52800
C1017       C  0.52328870  0.42658209  0.16944549     0.10300
C1018       C  0.99974214  0.40416890  0.13081697     0.21300
C1019       C  0.94447889  0.35697407  0.17888100    -0.53600
C1020       C  0.95320126  0.38280253  0.14722908     0.10400
C1021       C  0.99971825  0.34455345  0.15990811    -0.53100
C1022       C  0.00699483  0.36737817  0.12623181     0.11000
H1023       H  0.52080373  0.41211963  0.22989921     0.15500
H1024       H  0.00643055  0.42418945  0.10437303     0.01300
H1025       H  0.91400777  0.33979842  0.19386152     0.15800
H1026       H  0.00079587  0.31633526  0.16178341     0.15600
C1027       C  0.98615258  0.14197294  0.19597619     0.87400
C1028       C  0.94755158  0.09938832  0.19713558    -0.52800
C1029       C  0.94975995  0.07190002  0.17389768     0.10300
C1030       C  0.99170666  0.09199348  0.14923654     0.21300
C1031       C  0.51433280  0.12805212  0.20923978    -0.53600
C1032       C  0.52293082  0.10865364  0.18126319     0.10400
C1033       C  0.99255288  0.15739080  0.15469075    -0.53100
C1034       C  0.99485575  0.13153231  0.12980336     0.11000
H1035       H  0.92026695  0.09198090  0.21539486     0.15500
H1036       H  0.99395230  0.07116930  0.12913146     0.01300
H1037       H  0.52865254  0.13409972  0.23654842     0.15800
H1038       H  0.99309563  0.18552516  0.14559461     0.15600
C1039       C  0.64050456  0.15333874  0.19473574     0.87400
C1040       C  0.59724064  0.14711914  0.19910475    -0.52800
C1041       C  0.56745264  0.11719721  0.17803887     0.10300
C1042       C  0.58663396  0.09765634  0.15177624     0.21300
C1043       C  0.63521737  0.11132885  0.20192142    -0.53600
C1044       C  0.60688158  0.08068400  0.18045141     0.10400
C1045       C  0.65269968  0.16409743  0.15286443    -0.53100
C1046       C  0.62525333  0.13590293  0.12952453     0.11000
H1047       H  0.59216456  0.16703618  0.21700436     0.15500
H1048       H  0.56403587  0.07442103  0.13315832     0.01300
H1049       H  0.65526297  0.10826281  0.22177858     0.15800
H1050       H  0.68045745  0.19275692  0.14227399     0.15600
C1051       C  0.63086757  0.99621961  0.20785416     0.87400
C1052       C  0.62173203  0.03043528  0.21388438    -0.52800
C1053       C  0.60143747  0.03791658  0.18531329     0.10300
C1054       C  0.58511783  0.00339565  0.15615583     0.21300
C1055       C  0.59326976  0.45774185  0.19484201    -0.53600
C1056       C  0.56822685  0.46150657  0.16908849     0.10400
C1057       C  0.65001886  0.00364576  0.16740175    -0.53100
C1058       C  0.62576026  0.00600401  0.14001471     0.11000
H1059       H  0.63229756  0.04778585  0.23904584     0.15500
H1060       H  0.56576520  0.00613057  0.13405509     0.01300
H1061       H  0.58550927  0.42872343  0.20974815     0.15800
H1062       H  0.67891345  0.00397804  0.16073190     0.15600
C1063       C  0.84465624  0.98503071  0.20703960     0.87400
C1064       C  0.85901851  0.45026886  0.20390110    -0.52800
C1065       C  0.88240038  0.46342401  0.16991967     0.10300
C1066       C  0.89014542  0.99994089  0.14400185     0.21300
C1067       C  0.89092052  0.01512191  0.21050270    -0.53600
C1068       C  0.91475109  0.02739778  0.17705954     0.10400
C1069       C  0.82225763  0.48497400  0.18328770    -0.53100
C1070       C  0.85327510  0.00735435  0.13907004     0.11000
H1071       H  0.84847803  0.42049887  0.21853935     0.15500
H1072       H  0.90966664  0.00554229  0.11738128     0.01300
H1073       H  0.90296780  0.02926985  0.23715985     0.15800
H1074       H  0.79056344  0.47924218  0.18540223     0.15600
C1075       C  0.85572118  0.37428881  0.10855674     0.87400
C1076       C  0.86467103  0.41771153  0.11644112    -0.52800
C1077       C  0.88692135  0.43303264  0.14817707     0.10300
C1078       C  0.89873585  0.40354268  0.16814751     0.21300
C1079       C  0.89896560  0.37825012  0.10544648    -0.53600
C1080       C  0.92134815  0.39307555  0.13682770     0.10400
C1081       C  0.83420479  0.34832827  0.14622236    -0.53100
C1082       C  0.85665788  0.36353870  0.17754297     0.11000
H1083       H  0.85009247  0.43243017  0.10142768     0.15500
H1084       H  0.91733285  0.41618468  0.19355606     0.01300
H1085       H  0.90874060  0.36577939  0.08268008     0.15800
H1086       H  0.80386956  0.32004882  0.14780470     0.15600
C1087       C  0.79106476  0.47799753  0.10257505    -0.15500
C1088       C  0.83039714  0.50421370  0.11254239    -0.30700
H1089       H  0.82466994  0.05648214  0.11243990     0.13500
H1090       H  0.85199655  0.52971464  0.09278636     0.14100
C1091       C  0.82172290  0.46681605  0.25657903    -0.15500
C1092       C  0.78113525  0.45398056  0.26277210    -0.30700
H1093       H  0.79800711  0.94831099  0.25613271     0.13500
H1094       H  0.75931711  0.43956777  0.24069702     0.14100
C1095       C  0.65613532  0.99155237  0.23839407    -0.15500
C1096       C  0.68770576  0.52228998  0.25086710    -0.30700
H1097       H  0.64127255  0.46007423  0.24898055     0.13500
H1098       H  0.70297920  0.05443822  0.23667538     0.14100
C1099       C  0.68942635  0.54214213  0.08649608    -0.15500
C1100       C  0.63694463  0.00531421  0.09946252    -0.30700
H1101       H  0.69286900  0.06183513  0.10050712     0.13500
H1102       H  0.62601162  0.49911189  0.07849072     0.14100
C1103       C  0.02646076  0.32712836  0.08360716    -0.15500
C1104       C  0.00818611  0.34995467  0.08867253    -0.30700
H1105       H  0.04619994  0.32622357  0.10536463     0.13500
H1106       H  0.53935889  0.37778031  0.07425255     0.14100
C1107       C  0.00840702  0.33730966  0.24805704    -0.15500
C1108       C  0.97492437  0.33200879  0.23001937    -0.30700
H1109       H  0.53439494  0.35640058  0.23711299     0.13500
H1110       H  0.94337554  0.30998476  0.24141929     0.14100
C1111       C  0.98259671  0.16926751  0.22468503    -0.15500
C1112       C  0.01599650  0.20408128  0.23550477    -0.30700
H1113       H  0.45587850  0.16546087  0.23967781     0.13500
H1114       H  0.04653915  0.21576073  0.22103541     0.14100
C1115       C  0.99511922  0.14117677  0.08871629    -0.15500
C1116       C  0.02452250  0.17892277  0.07474955    -0.30700
H1117       H  0.96626981  0.12364409  0.07435971     0.13500
H1118       H  0.56343737  0.21602013  0.09593526     0.14100
C1119       C  0.82902655  0.35477508  0.07529589    -0.15500
C1120       C  0.82096187  0.31744559  0.06554271    -0.30700
H1121       H  0.81496895  0.37013410  0.06047340     0.13500
H1122       H  0.83660950  0.30326633  0.07957858     0.14100
C1123       C  0.80297765  0.32902866  0.23105033    -0.15500
C1124       C  0.84209384  0.34279837  0.21662337    -0.30700
H1125       H  0.78244244  0.33598834  0.21513611     0.13500
H1126       H  0.86396623  0.33958520  0.23410949     0.14100
C1127       C  0.66165992  0.18013583  0.25825748    -0.15500
C1128       C  0.67089341  0.18408857  0.22055076    -0.30700
H1129       H  0.63103191  0.15663618  0.27050759     0.13500
H1130       H  0.70112524  0.20889963  0.20865111     0.14100
C1131       C  0.63399117  0.14671905  0.08766970    -0.15500
C1132       C  0.67335907  0.16048332  0.07328916    -0.30700
H1133       H  0.61302083  0.15336608  0.07221152     0.13500
H1134       H  0.69275177  0.15170286  0.08895244     0.14100
O1135       O  0.68468284  0.23409416  0.62859588    -0.70900
O1136       O  0.77526172  0.30696176  0.36177757    -0.71100
O1137       O  0.75563228  0.30700442  0.62057517    -0.70900
O1138       O  0.70424417  0.23278200  0.37636825    -0.70900
O1139       O  0.73636561  0.19996896  0.36252092    -0.70900
O1140       O  0.79098441  0.27660877  0.61041811    -0.70900
O1141       O  0.80728827  0.27286977  0.35374184    -0.70900
O1142       O  0.71976174  0.20323217  0.61902962    -0.71100
V1143       V  0.72551610  0.26749706  0.66241333     1.35200
V1144       V  0.76578383  0.23961904  0.32067228     1.35200
C1145       C  0.68887446  0.20727323  0.61210092     0.78400
C1146       C  0.80541223  0.30159111  0.36887838     0.78400
C1147       C  0.78317741  0.30457129  0.60066558     0.78300
C1148       C  0.71065697  0.20349337  0.38418664     0.78300
O1149       O  0.55371952  0.24948856  0.36338986    -0.70900
O1150       O  0.55402348  0.31919041  0.62968650    -0.71100
O1151       O  0.54095758  0.31378600  0.37013840    -0.70900
O1152       O  0.56783177  0.25688511  0.62778649    -0.70900
O1153       O  0.99070646  0.21226044  0.61754948    -0.70900
O1154       O  0.97017968  0.26837683  0.37153890    -0.70900
O1155       O  0.97943383  0.27505706  0.62881156    -0.70900
O1156       O  0.97639473  0.20103298  0.36081293    -0.71100
V1157       V  0.54509175  0.28365832  0.32896435     1.35200
V1158       V  0.97567296  0.24217794  0.32835206     1.35200
C1159       C  0.01120046  0.20624144  0.37044047     0.78400
C1160       C  0.01305271  0.30575938  0.61455748     0.78400
C1161       C  0.00217858  0.29749626  0.38525578     0.78300
C1162       C  0.02709007  0.22181050  0.60565751     0.78300
O1163       O  0.72022654  0.03664971  0.62725332    -0.70900
O1164       O  0.79565192  0.03786069  0.38294669    -0.71100
O1165       O  0.79645386  0.04834969  0.63622709    -0.70900
O1166       O  0.72622984  0.04400428  0.37595209    -0.70900
O1167       O  0.68728178  0.49294599  0.37910120    -0.70900
O1168       O  0.72655469  0.43635355  0.64721154    -0.70900
O1169       O  0.73503639  0.45889532  0.38933615    -0.70900
O1170       O  0.67256627  0.46307243  0.64968070    -0.71100
V1171       V  0.75203084  0.04055451  0.66971892     1.35200
V1172       V  0.71159839  0.47088706  0.34647008     1.35200
C1173       C  0.68790641  0.49589059  0.62858176     0.78400
C1174       C  0.77133291  0.48528422  0.39871146     0.78400
C1175       C  0.76022269  0.46139164  0.62831680     0.78300
C1176       C  0.70765116  0.53080638  0.38531689     0.78300
C1177       C  0.98821386  0.35933306  0.53348590     0.87400
C1178       C  0.52795046  0.40702495  0.53881701    -0.52800
C1179       C  0.53978320  0.43264932  0.50645177     0.10300
C1180       C  0.00631815  0.40844863  0.47217946     0.21300
C1181       C  0.95190405  0.36373061  0.52202041    -0.53600
C1182       C  0.96074243  0.38991752  0.49053261     0.10400
C1183       C  0.00104665  0.34498122  0.49819566    -0.53100
C1184       C  0.00939119  0.36938848  0.46549591     0.11000
H1185       H  0.54269440  0.41666802  0.56571893     0.15500
H1186       H  0.01358787  0.42915308  0.44612918     0.01300
H1187       H  0.92187726  0.34778386  0.53780345     0.15800
H1188       H  0.00231380  0.31685024  0.49908039     0.15600
C1189       C  0.00376646  0.16097082  0.51484212     0.87400
C1190       C  0.97173283  0.11735635  0.53115499    -0.52800
C1191       C  0.96350231  0.08609537  0.50753596     0.10300
C1192       C  0.99240710  0.10210565  0.47096426     0.21300
C1193       C  0.54804407  0.15212179  0.52212536    -0.53600
C1194       C  0.54201471  0.11974742  0.50085234     0.10400
C1195       C  0.98763661  0.16446162  0.47682626    -0.53100
C1196       C  0.98317109  0.13490120  0.45294918     0.11000
H1197       H  0.95397052  0.11345972  0.55755862     0.15500
H1198       H  0.98815782  0.07808965  0.45138801     0.01300
H1199       H  0.57597930  0.16989886  0.53720799     0.15800
H1200       H  0.98394120  0.19030891  0.46796433     0.15600
C1201       C  0.63497077  0.12715571  0.53910495     0.87400
C1202       C  0.58888456  0.11223280  0.54202150    -0.52800
C1203       C  0.56909701  0.10061429  0.50850393     0.10300
C1204       C  0.59642555  0.09267802  0.47839879     0.21300
C1205       C  0.63425427  0.08832291  0.53304800    -0.53600
C1206       C  0.61531802  0.06884457  0.50106982     0.10400
C1207       C  0.65442555  0.15419764  0.50167962    -0.53100
C1208       C  0.63503543  0.13617763  0.46961053     0.11000
H1209       H  0.57500851  0.11737191  0.56735644     0.15500
H1210       H  0.57987760  0.07748465  0.45276716     0.01300
H1211       H  0.64650354  0.07650069  0.55452614     0.15800
H1212       H  0.68174715  0.18504840  0.50075088     0.15600
C1213       C  0.63558269  0.98232159  0.52257050     0.87400
C1214       C  0.64753252  0.02641361  0.51165363    -0.52800
C1215       C  0.61853259  0.03133575  0.49244289     0.10300
C1216       C  0.58438508  0.98964287  0.47778488     0.21300
C1217       C  0.61067182  0.47434065  0.52996324    -0.53600
C1218       C  0.58154150  0.47249014  0.50569675     0.10400
C1219       C  0.63385567  0.96468687  0.48429591    -0.53100
C1220       C  0.60904951  0.97054600  0.45958700     0.11000
H1221       H  0.67598925  0.05190396  0.52156034     0.15500
H1222       H  0.56297108  0.99267662  0.45833972     0.01300
H1223       H  0.60807982  0.44763600  0.54554357     0.15800
H1224       H  0.65577958  0.95526042  0.47523791     0.15600
C1225       C  0.85600044  0.99819586  0.54581515     0.87400
C1226       C  0.85699853  0.45006268  0.53830581    -0.52800
C1227       C  0.88166157  0.46384369  0.50520911     0.10300
C1228       C  0.90048917  0.01375661  0.48195550     0.21300
C1229       C  0.90039716  0.03427842  0.54685108    -0.53600
C1230       C  0.92394373  0.04463176  0.51330209     0.10400
C1231       C  0.81749028  0.48081152  0.51456694    -0.53100
C1232       C  0.85974395  0.01477229  0.47733624     0.11000
H1233       H  0.84797030  0.42103621  0.55374949     0.15500
H1234       H  0.91898770  0.01981923  0.45459940     0.01300
H1235       H  0.91122837  0.05069526  0.57254216     0.15800
H1236       H  0.78536505  0.47386027  0.51569333     0.15600
C1237       C  0.86547154  0.37896422  0.44304521     0.87400
C1238       C  0.87206122  0.42121202  0.45141864    -0.52800
C1239       C  0.88995058  0.43498568  0.48518691     0.10300
C1240       C  0.90058695  0.40526137  0.50681520     0.21300
C1241       C  0.90922242  0.38412271  0.44410290    -0.53600
C1242       C  0.92756180  0.39749743  0.47773191     0.10400
C1243       C  0.84028219  0.35064112  0.47874279    -0.53100
C1244       C  0.85861833  0.36422549  0.51224976     0.11000
H1245       H  0.85888067  0.43624318  0.43468417     0.15500
H1246       H  0.91580237  0.41674553  0.53402632     0.01300
H1247       H  0.92239206  0.37393556  0.42206770     0.15800
H1248       H  0.81071576  0.32191204  0.47743224     0.15600
C1249       C  0.78814039  0.47748597  0.43399547    -0.15500
C1250       C  0.82797752  0.50159380  0.44392938    -0.30700
H1251       H  0.78296640  0.97076799  0.45246116     0.13500
H1252       H  0.85062903  0.52621177  0.42401077     0.14100
C1253       C  0.81567668  0.46369944  0.58842804    -0.15500
C1254       C  0.77476378  0.44955448  0.59432839    -0.30700
H1255       H  0.81279758  0.96056507  0.59645077     0.13500
H1256       H  0.75346773  0.43665609  0.57161707     0.14100
C1257       C  0.66420553  0.98021111  0.55150321    -0.15500
C1258       C  0.66177329  0.50012147  0.60013453    -0.30700
H1259       H  0.70951589  0.53114834  0.55671032     0.13500
H1260       H  0.65290783  0.01650152  0.58828842     0.14100
C1261       C  0.69133900  0.54807680  0.41322050    -0.15500
C1262       C  0.62311092  0.97690221  0.41913821    -0.30700
H1263       H  0.66962366  0.03865461  0.42531667     0.13500
H1264       H  0.62764920  0.50166484  0.41255792     0.14100
C1265       C  0.99662211  0.31573878  0.42020934    -0.15500
C1266       C  0.01732951  0.35623756  0.42771359    -0.30700
H1267       H  0.97173340  0.29390451  0.44048671     0.13500
H1268       H  0.54416678  0.38267276  0.40803933     0.14100
C1269       C  0.01426529  0.33213949  0.58260034    -0.15500
C1270       C  0.98094075  0.33195645  0.56879383    -0.30700
H1271       H  0.55083698  0.35609591  0.56952713     0.13500
H1272       H  0.94988186  0.31290606  0.58260372     0.14100
C1273       C  0.00867312  0.19288434  0.54249678    -0.15500
C1274       C  0.03287550  0.20167798  0.57277679    -0.30700
H1275       H  0.48950983  0.19740894  0.55258976     0.13500
H1276       H  0.05540643  0.19165746  0.57488012     0.14100
C1277       C  0.98041135  0.14259433  0.41220687    -0.15500
C1278       C  0.01422626  0.17572520  0.39518306    -0.30700
H1279       H  0.94952991  0.13303443  0.40235832     0.13500
H1280       H  0.56213687  0.20388165  0.41326809     0.14100
C1281       C  0.84276720  0.36186116  0.40739651    -0.15500
C1282       C  0.83628684  0.32564875  0.39631982    -0.30700
H1283       H  0.82830018  0.37700581  0.39290492     0.13500
H1284       H  0.85196729  0.31139744  0.41019428     0.14100
C1285       C  0.80371064  0.33235871  0.56563169    -0.15500
C1286       C  0.84066905  0.34016625  0.54973483    -0.30700
H1287       H  0.78753447  0.34626603  0.55210904     0.13500
H1288       H  0.85807541  0.32849477  0.56453987     0.14100
C1289       C  0.65950052  0.18241232  0.58417683    -0.15500
C1290       C  0.65804073  0.14821867  0.57317776    -0.30700
H1291       H  0.64075265  0.19344821  0.57084302     0.13500
H1292       H  0.67598920  0.13682050  0.58763047     0.14100
C1293       C  0.65056733  0.15789644  0.43091253    -0.15500
C1294       C  0.69143347  0.17595344  0.41936434    -0.30700
H1295       H  0.62864408  0.15979090  0.41240281     0.13500
H1296       H  0.71209771  0.17062394  0.43681096     0.14100
O1297       O  0.68158458  0.23054555  0.96010375    -0.70900
O1298       O  0.76542030  0.30253147  0.69650148    -0.71100
O1299       O  0.75151552  0.30409853  0.95395594    -0.70900
O1300       O  0.69335649  0.22835961  0.70431990    -0.70900
O1301       O  0.72960242  0.19884747  0.69428349    -0.70900
O1302       O  0.78957569  0.27643541  0.94422351    -0.70900
O1303       O  0.80027072  0.27159098  0.68602662    -0.70900
O1304       O  0.71914940  0.20270099  0.94819914    -0.71100
V1305       V  0.72141008  0.26317943  0.99480379     1.35200
V1306       V  0.75941570  0.23819104  0.65256193     1.35200
C1307       C  0.68731738  0.20546583  0.94219258     0.78400
C1308       C  0.79621285  0.29813133  0.70314141     0.78400
C1309       C  0.78029535  0.30329221  0.93447539     0.78300
C1310       C  0.70138140  0.20044190  0.71380229     0.78300
O1311       O  0.56069662  0.24862967  0.70431958    -0.70900
O1312       O  0.53977202  0.31402149  0.95838099    -0.71100
O1313       O  0.54563636  0.31210425  0.70659621    -0.70900
O1314       O  0.55878159  0.25501351  0.95803982    -0.70900
O1315       O  0.96672339  0.19621328  0.96831548    -0.70900
O1316       O  0.97380813  0.25897917  0.70526249    -0.70900
O1317       O  0.96924525  0.26834420  0.96672596    -0.70900
O1318       O  0.98587661  0.19501557  0.69333994    -0.71100
V1319       V  0.55581087  0.28346226  0.66728036     1.35200
V1320       V  0.98362195  0.23608749  0.66155496     1.35200
C1321       C  0.02021210  0.20365486  0.70738163     0.78400
C1322       C  0.00164763  0.29636907  0.94801084     0.78400
C1323       C  0.00349320  0.29094913  0.71832387     0.78300
C1324       C  0.99693498  0.20109183  0.94684238     0.78300
O1325       O  0.72668833  0.04873075  0.96112334    -0.70900
O1326       O  0.78464747  0.04713506  0.71263929    -0.71100
O1327       O  0.79895560  0.05029337  0.96380973    -0.70900
O1328       O  0.70806206  0.03540186  0.70224345    -0.70900
O1329       O  0.68240392  0.47469163  0.72366484    -0.70900
O1330       O  0.73330875  0.44629844  0.98161241    -0.70900
O1331       O  0.73711101  0.44807537  0.72363511    -0.70900
O1332       O  0.68531511  0.47899564  0.97573959    -0.71100
V1333       V  0.76285604  0.05310354  0.00049713     1.35200
V1334       V  0.70589791  0.45666071  0.68587594     1.35200
C1335       C  0.70403825  0.51313981  0.95623834     0.78400
C1336       C  0.77198233  0.47783384  0.73237709     0.78400
C1337       C  0.76738686  0.46996927  0.96284579     0.78300
C1338       C  0.69911358  0.51282395  0.72823150     0.78300
C1339       C  0.97565428  0.34669853  0.86443007     0.87400
C1340       C  0.50339453  0.39454836  0.87264269    -0.52800
C1341       C  0.51934847  0.42158321  0.84120477     0.10300
C1342       C  0.99809224  0.39850570  0.80438118     0.21300
C1343       C  0.93982024  0.35016980  0.84990420    -0.53600
C1344       C  0.95121721  0.37843190  0.81953622     0.10400
C1345       C  0.99271248  0.33486158  0.83015572    -0.53100
C1346       C  0.00314202  0.36045056  0.79797495     0.11000
H1347       H  0.51339653  0.40329919  0.90128801     0.15500
H1348       H  0.00708919  0.42034690  0.77891831     0.01300
H1349       H  0.90873893  0.33344525  0.86373162     0.15800
H1350       H  0.99493785  0.30724602  0.83115724     0.15600
C1351       C  0.98739482  0.14583173  0.85384930     0.87400
C1352       C  0.94959779  0.10286621  0.86103176    -0.52800
C1353       C  0.94858016  0.07315790  0.83869122     0.10300
C1354       C  0.98757299  0.09095258  0.81002290     0.21300
C1355       C  0.53767270  0.14045175  0.86228722    -0.53600
C1356       C  0.53448670  0.11011133  0.83924733     0.10400
C1357       C  0.98724763  0.15613812  0.81197888    -0.53100
C1358       C  0.98796335  0.12832707  0.78853667     0.11000
H1359       H  0.92468252  0.09763150  0.88147112     0.15500
H1360       H  0.98767521  0.06806040  0.79123274     0.01300
H1361       H  0.56314613  0.15687946  0.88045140     0.15800
H1362       H  0.98773111  0.18385171  0.80139886     0.15600
C1363       C  0.63367474  0.12558573  0.86932477     0.87400
C1364       C  0.58726091  0.10751018  0.87559999    -0.52800
C1365       C  0.56506145  0.09442740  0.84359590     0.10300
C1366       C  0.59176386  0.08841241  0.81101348     0.21300
C1367       C  0.63575866  0.08854209  0.86195438    -0.53600
C1368       C  0.61503351  0.06741507  0.83123450     0.10400
C1369       C  0.64886563  0.15241005  0.83159734    -0.53100
C1370       C  0.62792722  0.13306860  0.80058181     0.11000
H1371       H  0.57423060  0.11051808  0.90257395     0.15500
H1372       H  0.57378298  0.07206797  0.78638716     0.01300
H1373       H  0.65110533  0.07906769  0.88217127     0.15800
H1374       H  0.67506689  0.18397304  0.82953625     0.15600
C1375       C  0.63463137  0.98435357  0.86041916     0.87400
C1376       C  0.64889990  0.02688514  0.84213188    -0.52800
C1377       C  0.61940455  0.03038180  0.82225988     0.10300
C1378       C  0.58390877  0.98686833  0.81190373     0.21300
C1379       C  0.58675537  0.45677867  0.87173555    -0.53600
C1380       C  0.56253286  0.45898453  0.84410626     0.10400
C1381       C  0.63062235  0.95995033  0.82591447    -0.53100
C1382       C  0.60608950  0.96303820  0.79902356     0.11000
H1383       H  0.67853220  0.05317266  0.84902337     0.15500
H1384       H  0.56311231  0.98829649  0.79064503     0.01300
H1385       H  0.57891054  0.42873101  0.88846756     0.15800
H1386       H  0.65086023  0.94756940  0.82030244     0.15600
C1387       C  0.84261070  0.98534268  0.87568574     0.87400
C1388       C  0.85905796  0.45013820  0.87193860    -0.52800
C1389       C  0.88350727  0.46342325  0.83860725     0.10300
C1390       C  0.88732084  0.99935498  0.81218044     0.21300
C1391       C  0.88817502  0.01871834  0.87740155    -0.53600
C1392       C  0.91161814  0.02953154  0.84375611     0.10400
C1393       C  0.82089758  0.48233021  0.84835546    -0.53100
C1394       C  0.84831519  0.00325599  0.80704082     0.11000
H1395       H  0.84890363  0.42072204  0.88710999     0.15500
H1396       H  0.90623525  0.00474373  0.78519902     0.01300
H1397       H  0.89990688  0.03467317  0.90330413     0.15800
H1398       H  0.78880024  0.47542889  0.84908951     0.15600
C1399       C  0.85807047  0.37540666  0.77701328     0.87400
C1400       C  0.86810136  0.41898941  0.78493395    -0.52800
C1401       C  0.88868887  0.43302013  0.81763410     0.10300
C1402       C  0.89814198  0.40201724  0.83848380     0.21300
C1403       C  0.90054102  0.37775370  0.77575779    -0.53600
C1404       C  0.92128610  0.39095730  0.80816646     0.10400
C1405       C  0.83406262  0.34892440  0.81388453    -0.53100
C1406       C  0.85499711  0.36280161  0.84621859     0.11000
H1407       H  0.85520616  0.43482708  0.76903552     0.15500
H1408       H  0.91561225  0.41362177  0.86465732     0.01300
H1409       H  0.91082827  0.36535084  0.75333222     0.15800
H1410       H  0.80332714  0.32128432  0.81419734     0.15600
C1411       C  0.79215594  0.47282112  0.76667227    -0.15500
C1412       C  0.83048332  0.50111167  0.77745663    -0.30700
H1413       H  0.80380577  0.03861713  0.78576840     0.13500
H1414       H  0.85092114  0.52789296  0.75846594     0.14100
C1415       C  0.81919129  0.46552718  0.92256011    -0.15500
C1416       C  0.77965953  0.45626019  0.92875865    -0.30700
H1417       H  0.79889329  0.95103286  0.92770883     0.13500
H1418       H  0.75810554  0.44600364  0.90605284     0.14100
C1419       C  0.66324205  0.98521515  0.89121566    -0.15500
C1420       C  0.68470249  0.52091799  0.92319540    -0.30700
H1421       H  0.63451456  0.46017456  0.92574338     0.13500
H1422       H  0.65876303  0.03033041  0.92095235     0.14100
C1423       C  0.68247763  0.52763755  0.75805485    -0.15500
C1424       C  0.61763057  0.96084237  0.75921822    -0.30700
H1425       H  0.64890183  0.02515986  0.74938294     0.13500
H1426       H  0.61876399  0.48353235  0.75267000     0.14100
C1427       C  0.99434308  0.30861676  0.75198214    -0.15500
C1428       C  0.01434809  0.34878154  0.76074907    -0.30700
H1429       H  0.96773692  0.28635318  0.77053105     0.13500
H1430       H  0.53958854  0.37837182  0.74320041     0.14100
C1431       C  0.00094314  0.32039726  0.91479145    -0.15500
C1432       C  0.96732830  0.31873671  0.89979349    -0.30700
H1433       H  0.53102029  0.34767728  0.90067137     0.13500
H1434       H  0.93602132  0.29913361  0.91292146     0.14100
C1435       C  0.98893397  0.17685639  0.88108817    -0.15500
C1436       C  0.99035725  0.17051517  0.91899536    -0.30700
H1437       H  0.47612469  0.18330696  0.89047822     0.13500
H1438       H  0.98761782  0.14191124  0.93008661     0.14100
C1439       C  0.99174199  0.13802728  0.74700075    -0.15500
C1440       C  0.02415376  0.17498995  0.73423360    -0.30700
H1441       H  0.96316361  0.12370388  0.73178352     0.13500
H1442       H  0.56345320  0.20050824  0.75587955     0.14100
C1443       C  0.83316400  0.35771471  0.74259910    -0.15500
C1444       C  0.82554266  0.32093535  0.73194987    -0.30700
H1445       H  0.81974322  0.37371514  0.72778743     0.13500
H1446       H  0.84044768  0.30600916  0.74602884     0.14100
C1447       C  0.80011646  0.33085000  0.89937773    -0.15500
C1448       C  0.83828206  0.34101293  0.88470431    -0.30700
H1449       H  0.78204845  0.34165068  0.88425649     0.13500
H1450       H  0.85777953  0.33341727  0.90145352     0.14100
C1451       C  0.65813842  0.18065842  0.91427676    -0.15500
C1452       C  0.65841211  0.14776238  0.90211964    -0.30700
H1453       H  0.63735271  0.19009301  0.90257313     0.13500
H1454       H  0.67843051  0.13795847  0.91502396     0.14100
C1455       C  0.64143985  0.15415399  0.76140618    -0.15500
C1456       C  0.68213778  0.17282106  0.74900172    -0.30700
H1457       H  0.61863064  0.15538038  0.74365134     0.13500
H1458       H  0.70329560  0.16789000  0.76610321     0.14100
O1459       O  0.69332221  0.73086428  0.29623396    -0.70900
O1460       O  0.76919533  0.78570547  0.03634989    -0.71100
O1461       O  0.76366316  0.80525452  0.29712502    -0.70900
O1462       O  0.69478966  0.71284693  0.03674817    -0.70900
O1463       O  0.72897123  0.68218660  0.02244601    -0.70900
O1464       O  0.80030978  0.77629172  0.28612086    -0.70900
O1465       O  0.80284610  0.75452772  0.02170171    -0.70900
O1466       O  0.73086625  0.70264083  0.28569186    -0.71100
V1467       V  0.72979992  0.76091296  0.33406941     1.35200
V1468       V  0.76254375  0.72643767  0.98537500     1.35200
C1469       C  0.69956913  0.70588592  0.27869852     0.78400
C1470       C  0.80033439  0.78119883  0.04019571     0.78400
C1471       C  0.79301382  0.80493643  0.27826444     0.78300
C1472       C  0.69931967  0.68192837  0.04138082     0.78300
O1473       O  0.55325780  0.75287208  0.04706720    -0.70900
O1474       O  0.53402208  0.81468681  0.30483713    -0.71100
O1475       O  0.53702771  0.81460181  0.04681627    -0.70900
O1476       O  0.54787435  0.75210351  0.30685610    -0.70900
O1477       O  0.98320344  0.71382691  0.30744864    -0.70900
O1478       O  0.96695597  0.76894465  0.05621059    -0.70900
O1479       O  0.97214715  0.77806807  0.31262416    -0.70900
O1480       O  0.98156426  0.70651601  0.05130137    -0.71100
V1481       V  0.54389004  0.78311154  0.00859646     1.35200
V1482       V  0.97570399  0.74232842  0.01529375     1.35200
C1483       C  0.01735032  0.71799682  0.06360371     0.78400
C1484       C  0.00479372  0.80930771  0.29754370     0.78400
C1485       C  0.99729058  0.80076029  0.06858470     0.78300
C1486       C  0.01873098  0.72366479  0.29283053     0.78300
O1487       O  0.74210623  0.54135367  0.29403101    -0.70900
O1488       O  0.79236936  0.51833413  0.04723822    -0.71100
O1489       O  0.78892620  0.50657566  0.30254027    -0.70900
O1490       O  0.74265796  0.55041751  0.04117698    -0.70900
O1491       O  0.69226286  0.99256902  0.04681396    -0.70900
O1492       O  0.76910764  0.97712378  0.30758350    -0.70900
O1493       O  0.76556187  0.99325289  0.05122088    -0.70900
O1494       O  0.70250299  0.98370567  0.29688884    -0.71100
V1495       V  0.76560576  0.52869036  0.33627940     1.35200
V1496       V  0.73014005  0.98913762  0.01094907     1.35200
C1497       C  0.71150924  0.01905422  0.28358180     0.78400
C1498       C  0.79484416  0.02835649  0.05944600     0.78400
C1499       C  0.79943409  0.01083197  0.29346093     0.78300
C1500       C  0.69842670  0.02782234  0.05419954     0.78300
C1501       C  0.97659466  0.85983722  0.21667998     0.87400
C1502       C  0.50297321  0.90086097  0.21403574    -0.52800
C1503       C  0.51803884  0.92664877  0.18155532     0.10300
C1504       C  0.99446713  0.90644917  0.15395563     0.21300
C1505       C  0.93912680  0.86099943  0.20276879    -0.53600
C1506       C  0.94813843  0.88555844  0.16999536     0.10400
C1507       C  0.99252184  0.84604470  0.18263554    -0.53100
C1508       C  0.00118704  0.86971949  0.14946639     0.11000
H1509       H  0.51483466  0.91068514  0.24196937     0.15500
H1510       H  0.00124073  0.92595426  0.12714668     0.01300
H1511       H  0.90816020  0.84343697  0.21700753     0.15800
H1512       H  0.99535751  0.81877836  0.18450029     0.15600
C1513       C  0.98851110  0.64334470  0.21559593     0.87400
C1514       C  0.94720825  0.60429977  0.21244882    -0.52800
C1515       C  0.94652523  0.57891629  0.18519361     0.10300
C1516       C  0.98846374  0.59919751  0.15974131     0.21300
C1517       C  0.52242813  0.62994587  0.21771533    -0.53600
C1518       C  0.52763747  0.61118510  0.18687529     0.10400
C1519       C  0.99735857  0.66551156  0.17618953    -0.53100
C1520       C  0.99594260  0.64215328  0.14671057     0.11000
H1521       H  0.92047536  0.59765307  0.23110274     0.15500
H1522       H  0.98821729  0.58035090  0.13618088     0.01300
H1523       H  0.54174108  0.63798255  0.24214150     0.15800
H1524       H  0.00124484  0.69595772  0.17186526     0.15600
C1525       C  0.64554223  0.65198669  0.19074304     0.87400
C1526       C  0.60424079  0.65037070  0.19549915    -0.52800
C1527       C  0.57171435  0.62007003  0.17719988     0.10300
C1528       C  0.58675529  0.59684133  0.15098850     0.21300
C1529       C  0.63612096  0.60846939  0.19982763    -0.53600
C1530       C  0.60532470  0.57850001  0.17962628     0.10400
C1531       C  0.65652748  0.65992469  0.14863257    -0.53100
C1532       C  0.62662698  0.63179242  0.12690822     0.11000
H1533       H  0.60183994  0.67223086  0.21289395     0.15500
H1534       H  0.56208238  0.57365821  0.13376404     0.01300
H1535       H  0.65502355  0.60327141  0.21964503     0.15800
H1536       H  0.68560309  0.68636938  0.13668122     0.15600
C1537       C  0.63109519  0.49748920  0.20428194     0.87400
C1538       C  0.61405622  0.52536042  0.21382302    -0.52800
C1539       C  0.59611795  0.53462453  0.18429325     0.10300
C1540       C  0.58862468  0.50653324  0.15056833     0.21300
C1541       C  0.58841187  0.95847403  0.20645700    -0.53600
C1542       C  0.56259837  0.96159786  0.18114882     0.10400
C1543       C  0.65615765  0.51472347  0.16620381    -0.53100
C1544       C  0.63380066  0.51822962  0.13737612     0.11000
H1545       H  0.62064799  0.54035640  0.24057560     0.15500
H1546       H  0.57030851  0.50995192  0.12779734     0.01300
H1547       H  0.57980689  0.93108956  0.22465788     0.15800
H1548       H  0.68724649  0.51917737  0.16164969     0.15600
C1549       C  0.84450998  0.47883190  0.21730024     0.87400
C1550       C  0.84384483  0.94712607  0.19404301    -0.52800
C1551       C  0.86839028  0.95452754  0.16171900     0.10300
C1552       C  0.89079729  0.50594883  0.15314057     0.21300
C1553       C  0.88468603  0.51967138  0.21910104    -0.53600
C1554       C  0.90907735  0.53570414  0.18594955     0.10400
C1555       C  0.83064823  0.00110785  0.17269036    -0.53100
C1556       C  0.84620053  0.49849397  0.14953702     0.11000
H1557       H  0.82603934  0.91714748  0.20932910     0.15500
H1558       H  0.91030389  0.51707764  0.12590476     0.01300
H1559       H  0.89331517  0.53424218  0.24597713     0.15800
H1560       H  0.80229602  0.00271116  0.17416022     0.15600
C1561       C  0.85787578  0.86413069  0.10849807     0.87400
C1562       C  0.86006440  0.90541573  0.11299631    -0.52800
C1563       C  0.87274092  0.92069497  0.14770829     0.10300
C1564       C  0.88198498  0.89330140  0.17469888     0.21300
C1565       C  0.90180458  0.87247804  0.11647706    -0.53600
C1566       C  0.91426679  0.88755132  0.15145718     0.10400
C1567       C  0.82946011  0.83571817  0.14256437    -0.53100
C1568       C  0.84201006  0.85049100  0.17725131     0.11000
H1569       H  0.84988893  0.91977696  0.09186936     0.15500
H1570       H  0.89248198  0.90577447  0.20301376     0.01300
H1571       H  0.91946242  0.86361397  0.09802136     0.15800
H1572       H  0.80229271  0.80539716  0.13949038     0.15600
C1573       C  0.82019244  0.03302737  0.09306328    -0.15500
C1574       C  0.83609992  0.00865147  0.10127206    -0.30700
H1575       H  0.77059498  0.45101614  0.12142159     0.13500
H1576       H  0.83458128  0.98736709  0.08060770     0.14100
C1577       C  0.81975704  0.97913843  0.24364739    -0.15500
C1578       C  0.82504544  0.01260009  0.26051667    -0.30700
H1579       H  0.84118658  0.47827643  0.28087045     0.13500
H1580       H  0.84719783  0.04315144  0.24764929     0.14100
C1581       C  0.65393142  0.49119071  0.23627838    -0.15500
C1582       C  0.69101881  0.02380607  0.25018955    -0.30700
H1583       H  0.64373258  0.96144484  0.25329556     0.13500
H1584       H  0.70150720  0.55349070  0.23811124     0.14100
C1585       C  0.67528108  0.03391104  0.08539800    -0.15500
C1586       C  0.64832039  0.52117362  0.09707794    -0.30700
H1587       H  0.71143197  0.56592390  0.10403090     0.13500
H1588       H  0.61785327  0.97769711  0.08452973     0.14100
C1589       C  0.98939352  0.81820929  0.10288199    -0.15500
C1590       C  0.01172379  0.85771156  0.11246741    -0.30700
H1591       H  0.96234848  0.79662056  0.12138585     0.13500
H1592       H  0.53922075  0.88132045  0.08600526     0.14100
C1593       C  0.00425287  0.83527911  0.26614099    -0.15500
C1594       C  0.97009516  0.83348246  0.25250447    -0.30700
H1595       H  0.53014462  0.85284509  0.24637905     0.13500
H1596       H  0.93912909  0.81319352  0.26602662     0.14100
C1597       C  0.98782285  0.66799542  0.24844322    -0.15500
C1598       C  0.02207872  0.70142713  0.26024995    -0.30700
H1599       H  0.45891850  0.65901583  0.25863776     0.13500
H1600       H  0.05252069  0.71224058  0.24598717     0.14100
C1601       C  0.99625167  0.65632566  0.10684463    -0.15500
C1602       C  0.02366941  0.69558456  0.09526218    -0.30700
H1603       H  0.97083923  0.63661066  0.08935430     0.13500
H1604       H  0.55613649  0.71586170  0.10988037     0.14100
C1605       C  0.84065286  0.84474994  0.07186630    -0.15500
C1606       C  0.83256546  0.80649706  0.06600156    -0.30700
H1607       H  0.82832097  0.85915057  0.05308049     0.13500
H1608       H  0.84585320  0.79216997  0.08357496     0.14100
C1609       C  0.81689074  0.83591816  0.24639832    -0.15500
C1610       C  0.82167488  0.82321475  0.21244510    -0.30700
H1611       H  0.82719721  0.86805848  0.24980381     0.13500
H1612       H  0.80741898  0.79023757  0.20946522     0.14100
C1613       C  0.66927780  0.67913959  0.25286187    -0.15500
C1614       C  0.67819024  0.68222181  0.21527460    -0.30700
H1615       H  0.63831341  0.65651537  0.26511142     0.13500
H1616       H  0.70861583  0.70594342  0.20280451     0.14100
C1617       C  0.63517205  0.63908221  0.08479514    -0.15500
C1618       C  0.67328696  0.64787013  0.07051225    -0.30700
H1619       H  0.61765911  0.65017731  0.06920041     0.13500
H1620       H  0.68966578  0.63535657  0.08605470     0.14100
O1621       O  0.67725137  0.73146165  0.63208296    -0.70900
O1622       O  0.76512582  0.79259429  0.37253333    -0.71100
O1623       O  0.74837875  0.80370707  0.62530220    -0.70900
O1624       O  0.69368046  0.71666604  0.37053678    -0.70900
O1625       O  0.73221914  0.68954927  0.36072759    -0.70900
O1626       O  0.78678430  0.77729142  0.61140177    -0.70900
O1627       O  0.80271016  0.76448765  0.36222766    -0.70900
O1628       O  0.71462704  0.70683722  0.60937943    -0.71100
V1629       V  0.72011581  0.76108831  0.66496836     1.35200
V1630       V  0.76594054  0.73393554  0.32404581     1.35200
C1631       C  0.68275377  0.71045144  0.60831462     0.78400
C1632       C  0.79666875  0.78973510  0.37982160     0.78400
C1633       C  0.77721317  0.80451926  0.60454153     0.78300
C1634       C  0.70005542  0.68703915  0.37679536     0.78300
O1635       O  0.54295481  0.74988026  0.38433390    -0.70900
O1636       O  0.53090500  0.81360690  0.63763840    -0.71100
O1637       O  0.52824102  0.81259278  0.38167810    -0.70900
O1638       O  0.54555689  0.75148492  0.63803321    -0.70900
O1639       O  0.98345806  0.71214356  0.64092395    -0.70900
O1640       O  0.97117038  0.76953456  0.38939639    -0.70900
O1641       O  0.97214397  0.77651666  0.64433823    -0.70900
O1642       O  0.98332729  0.70593995  0.38385566    -0.71100
V1643       V  0.53701509  0.78144285  0.34446605     1.35200
V1644       V  0.97876464  0.74268437  0.34831556     1.35200
C1645       C  0.01863680  0.71659886  0.39677002     0.78400
C1646       C  0.00505475  0.80814402  0.62997703     0.78400
C1647       C  0.00195727  0.80121130  0.40132575     0.78300
C1648       C  0.01914370  0.72225757  0.62652248     0.78300
O1649       O  0.72513091  0.52426793  0.63312103    -0.70900
O1650       O  0.79157724  0.51865439  0.37819860    -0.71100
O1651       O  0.78003235  0.49847299  0.63714341    -0.70900
O1652       O  0.74389046  0.55294218  0.36937146    -0.70900
O1653       O  0.68622727  0.97792955  0.37181654    -0.70900
O1654       O  0.77058408  0.98200528  0.64007224    -0.70900
O1655       O  0.75408735  0.97146445  0.38427931    -0.70900
O1656       O  0.69446352  0.97034871  0.63036276    -0.71100
V1657       V  0.75516771  0.51684756  0.67305833     1.35200
V1658       V  0.72887660  0.97880324  0.34042262     1.35200
C1659       C  0.69625885  0.00194715  0.61450481     0.78400
C1660       C  0.78426045  0.00242895  0.39809670     0.78400
C1661       C  0.79753379  0.01733612  0.62576355     0.78300
C1662       C  0.69164711  0.01120706  0.38401756     0.78300
C1663       C  0.98013091  0.86015853  0.54726873     0.87400
C1664       C  0.50324650  0.89943460  0.54905748    -0.52800
C1665       C  0.51777189  0.92544331  0.51683901     0.10300
C1666       C  0.99876603  0.90770317  0.48492053     0.21300
C1667       C  0.94293050  0.86138080  0.53267963    -0.53600
C1668       C  0.95234755  0.88679413  0.50048295     0.10400
C1669       C  0.99685639  0.84707858  0.51351163    -0.53100
C1670       C  0.00576803  0.87107976  0.48047429     0.11000
H1671       H  0.51648674  0.90819156  0.57663053     0.15500
H1672       H  0.00589299  0.92754566  0.45829269     0.01300
H1673       H  0.91200590  0.84401046  0.54676194     0.15800
H1674       H  0.99991815  0.81994680  0.51539719     0.15600
C1675       C  0.98757250  0.64073180  0.54985017     0.87400
C1676       C  0.94551098  0.60251626  0.54751021    -0.52800
C1677       C  0.94271153  0.57733124  0.51930920     0.10300
C1678       C  0.98365682  0.59703567  0.49231388     0.21300
C1679       C  0.51323394  0.62144661  0.55152000    -0.53600
C1680       C  0.51714568  0.60477805  0.51832216     0.10400
C1681       C  0.99531211  0.66360618  0.51074728    -0.53100
C1682       C  0.99190743  0.64034511  0.48057211     0.11000
H1683       H  0.91985029  0.59671392  0.56715962     0.15500
H1684       H  0.98170314  0.57826898  0.46806698     0.01300
H1685       H  0.53510357  0.62971622  0.57402855     0.15800
H1686       H  0.00053785  0.69462886  0.50723285     0.15600
C1687       C  0.63512798  0.65990612  0.51918279     0.87400
C1688       C  0.59253868  0.65510245  0.51944690    -0.52800
C1689       C  0.56230026  0.62068416  0.50354849     0.10300
C1690       C  0.58215021  0.59867431  0.48088789     0.21300
C1691       C  0.62920475  0.61836383  0.53240777    -0.53600
C1692       C  0.60277225  0.58546004  0.51219629     0.10400
C1693       C  0.64857256  0.66583742  0.47786479    -0.53100
C1694       C  0.62157084  0.63464467  0.45667338     0.11000
H1695       H  0.58660269  0.67653365  0.53417650     0.15500
H1696       H  0.55987999  0.57315862  0.46394338     0.01300
H1697       H  0.64864059  0.61754755  0.55431253     0.15800
H1698       H  0.67694903  0.69314424  0.46596313     0.15600
C1699       C  0.64711000  0.51695792  0.53512538     0.87400
C1700       C  0.62717852  0.54223607  0.54457189    -0.52800
C1701       C  0.60349952  0.54557674  0.51673672     0.10300
C1702       C  0.59593778  0.51538268  0.48457116     0.21300
C1703       C  0.59033113  0.96001362  0.53821769    -0.53600
C1704       C  0.56227648  0.96084178  0.51408742     0.10400
C1705       C  0.66766099  0.53245572  0.49511315    -0.53100
C1706       C  0.64091550  0.53005813  0.46788858     0.11000
H1707       H  0.63467354  0.55856428  0.57049231     0.15500
H1708       H  0.57415791  0.51447997  0.46314840     0.01300
H1709       H  0.58179706  0.94011328  0.56403646     0.15800
H1710       H  0.69927638  0.53913941  0.48829654     0.15600
C1711       C  0.83948014  0.47679171  0.54972699     0.87400
C1712       C  0.86139120  0.96261607  0.53523981    -0.52800
C1713       C  0.88450423  0.97013664  0.50175775     0.10300
C1714       C  0.88790694  0.50494266  0.48695041     0.21300
C1715       C  0.87792905  0.51905575  0.55181620    -0.53600
C1716       C  0.90385506  0.53516379  0.51940115     0.10400
C1717       C  0.83717012  0.00731358  0.51106293    -0.53100
C1718       C  0.84263712  0.49525073  0.48148847     0.11000
H1719       H  0.84664492  0.93333602  0.55195552     0.15500
H1720       H  0.90836262  0.51640296  0.46027738     0.01300
H1721       H  0.88452774  0.53359473  0.57872253     0.15800
H1722       H  0.80775089  0.00692486  0.51300407     0.15600
C1723       C  0.85802440  0.87422403  0.44961060     0.87400
C1724       C  0.86749935  0.91868560  0.45301493    -0.52800
C1725       C  0.88696171  0.93584900  0.48552770     0.10300
C1726       C  0.89541099  0.90693614  0.51108465     0.21300
C1727       C  0.90063935  0.87702475  0.45254735    -0.53600
C1728       C  0.91992800  0.89380801  0.48503659     0.10400
C1729       C  0.83278072  0.85095433  0.48706352    -0.53100
C1730       C  0.85243386  0.86790586  0.51925588     0.11000
H1731       H  0.85575501  0.93333004  0.43388760     0.15500
H1732       H  0.91142507  0.92074589  0.53742538     0.01300
H1733       H  0.91231636  0.86322636  0.43286154     0.15800
H1734       H  0.80261355  0.82253681  0.48794473     0.15600
C1735       C  0.80347798  0.99664936  0.43252625    -0.15500
C1736       C  0.84418101  0.02061941  0.44013463    -0.30700
H1737       H  0.76639358  0.45120276  0.45295116     0.13500
H1738       H  0.86616383  0.04411510  0.41898815     0.14100
C1739       C  0.83033380  0.99119835  0.58214214    -0.15500
C1740       C  0.82765660  0.02269473  0.59531911    -0.30700
H1741       H  0.83464926  0.47321917  0.61321374     0.13500
H1742       H  0.84584451  0.05321385  0.58084302     0.14100
C1743       C  0.67646641  0.51776408  0.56475672    -0.15500
C1744       C  0.66866630  0.99922803  0.58427198    -0.30700
H1745       H  0.68122374  0.96450954  0.54565806     0.13500
H1746       H  0.62832320  0.48458298  0.60727919     0.14100
C1747       C  0.65954090  0.01162825  0.40895281    -0.15500
C1748       C  0.65131020  0.52718463  0.42743520    -0.30700
H1749       H  0.71431414  0.57499606  0.42709092     0.13500
H1750       H  0.61369864  0.94937426  0.40377954     0.14100
C1751       C  0.99466678  0.81913937  0.43526226    -0.15500
C1752       C  0.01631993  0.85900589  0.44367165    -0.30700
H1753       H  0.96818413  0.79754053  0.45434210     0.13500
H1754       H  0.53457306  0.87813273  0.42252133     0.14100
C1755       C  0.00567539  0.83433410  0.59797470    -0.15500
C1756       C  0.97233006  0.83307889  0.58303788    -0.30700
H1757       H  0.52469516  0.84639244  0.57749267     0.13500
H1758       H  0.94090813  0.81280049  0.59571606     0.14100
C1759       C  0.98851571  0.66525020  0.58355902    -0.15500
C1760       C  0.02272831  0.69952082  0.59431308    -0.30700
H1761       H  0.45466855  0.65034450  0.60112054     0.13500
H1762       H  0.05284894  0.71096986  0.57915271     0.14100
C1763       C  0.99298351  0.65535805  0.44099944    -0.15500
C1764       C  0.02317320  0.69338603  0.42879876    -0.30700
H1765       H  0.96658436  0.63720402  0.42383845     0.13500
H1766       H  0.54137968  0.71241148  0.44863043     0.14100
C1767       C  0.83417748  0.85281466  0.41539587    -0.15500
C1768       C  0.82527576  0.81429283  0.40891670    -0.30700
H1769       H  0.82206653  0.86787573  0.39723791     0.13500
H1770       H  0.83911408  0.80009472  0.42591755     0.14100
C1771       C  0.79665428  0.83410171  0.57097179    -0.15500
C1772       C  0.83603919  0.84746434  0.55796976    -0.30700
H1773       H  0.77724699  0.84256484  0.55499953     0.13500
H1774       H  0.85624691  0.84188258  0.57572535     0.14100
C1775       C  0.65229904  0.68978737  0.58062401    -0.15500
C1776       C  0.66428166  0.69239957  0.54382588    -0.30700
H1777       H  0.62011791  0.66889505  0.59117783     0.13500
H1778       H  0.69627930  0.71421377  0.53329549     0.14100
C1779       C  0.63287288  0.63993930  0.41503474    -0.15500
C1780       C  0.67293505  0.65168611  0.40440512    -0.30700
H1781       H  0.61548149  0.64902358  0.39677526     0.13500
H1782       H  0.68935985  0.64118232  0.42249804     0.14100
O1783       O  0.69068129  0.72895435  0.96328208    -0.70900
O1784       O  0.76249953  0.79275180  0.69831615    -0.71100
O1785       O  0.76384839  0.80077886  0.96294030    -0.70900
O1786       O  0.68901216  0.71807867  0.70410008    -0.70900
O1787       O  0.71931075  0.68612206  0.68233758    -0.70900
O1788       O  0.79654513  0.76893069  0.94737033    -0.70900
O1789       O  0.79278012  0.75817788  0.68446206    -0.70900
O1790       O  0.72438209  0.69783905  0.94821072    -0.71100
V1791       V  0.73032819  0.75645681  0.99971965     1.35200
V1792       V  0.75271123  0.73255257  0.64740387     1.35200
C1793       C  0.69443150  0.70386763  0.94345502     0.78400
C1794       C  0.79237438  0.78625464  0.70240657     0.78400
C1795       C  0.79132242  0.79933003  0.94214732     0.78300
C1796       C  0.69218886  0.68615459  0.70492402     0.78300
O1797       O  0.54648528  0.75184732  0.71498882    -0.70900
O1798       O  0.53769563  0.81504661  0.97008030    -0.71100
O1799       O  0.53014877  0.81362560  0.71467539    -0.70900
O1800       O  0.55248364  0.75317400  0.97001243    -0.70900
O1801       O  0.98125657  0.71354257  0.97474731    -0.70900
O1802       O  0.96940150  0.76804994  0.72156021    -0.70900
O1803       O  0.96800438  0.77670300  0.97891186    -0.70900
O1804       O  0.98236930  0.70477675  0.71745368    -0.71100
V1805       V  0.53697652  0.78183242  0.67643184     1.35200
V1806       V  0.97813079  0.74125736  0.68105610     1.35200
C1807       C  0.01776391  0.71541297  0.73025746     0.78400
C1808       C  0.00026510  0.80857733  0.96398610     0.78400
C1809       C  0.99984473  0.79920390  0.73451764     0.78300
C1810       C  0.01703038  0.72442289  0.95993600     0.78300
O1811       O  0.73995064  0.54028328  0.96538830    -0.70900
O1812       O  0.78702489  0.51176340  0.71271280    -0.71100
O1813       O  0.78852305  0.50726772  0.97112936    -0.70900
O1814       O  0.73203830  0.53773635  0.70837326    -0.70900
O1815       O  0.68185211  0.96905797  0.70645128    -0.70900
O1816       O  0.76626892  0.98375559  0.97517155    -0.70900
O1817       O  0.75966655  0.98100852  0.71627980    -0.70900
O1818       O  0.69412631  0.98205091  0.97056780    -0.71100
V1819       V  0.76491448  0.52785948  0.00647110     1.35200
V1820       V  0.72716116  0.97683213  0.67342895     1.35200
C1821       C  0.69877145  0.01350992  0.95173368     0.78400
C1822       C  0.78332112  0.01601324  0.72901671     0.78400
C1823       C  0.79397573  0.01584239  0.95615721     0.78300
C1824       C  0.67935630  0.00007804  0.71479582     0.78300
C1825       C  0.97223158  0.85703926  0.88057168     0.87400
C1826       C  0.50446906  0.90026237  0.88499626    -0.52800
C1827       C  0.51767940  0.92631904  0.85290502     0.10300
C1828       C  0.98991262  0.90290472  0.81729757     0.21300
C1829       C  0.93445152  0.85685057  0.86572535    -0.53600
C1830       C  0.94333786  0.88122831  0.83286003     0.10400
C1831       C  0.98961680  0.84381394  0.84719297    -0.53100
C1832       C  0.99815000  0.86707636  0.81369980     0.11000
H1833       H  0.51748813  0.90909609  0.91256261     0.15500
H1834       H  0.99653460  0.92219998  0.79037916     0.01300
H1835       H  0.90351282  0.83931771  0.88002780     0.15800
H1836       H  0.99377060  0.81735896  0.84982573     0.15600
C1837       C  0.98840221  0.64260957  0.88356237     0.87400
C1838       C  0.94726723  0.60310996  0.88144556    -0.52800
C1839       C  0.94575632  0.57778467  0.85376715     0.10300
C1840       C  0.98698422  0.59809976  0.82735528     0.21300
C1841       C  0.51842520  0.62528905  0.88451782    -0.53600
C1842       C  0.52296289  0.60707470  0.85292910     0.10400
C1843       C  0.99559415  0.66422960  0.84402319    -0.53100
C1844       C  0.99354453  0.64060224  0.81454589     0.11000
H1845       H  0.92100999  0.59679837  0.90054542     0.15500
H1846       H  0.98616391  0.57919907  0.80361863     0.01300
H1847       H  0.53797448  0.63233004  0.90874559     0.15800
H1848       H  0.99927323  0.69458434  0.83964688     0.15600
C1849       C  0.64153967  0.65228351  0.85492445     0.87400
C1850       C  0.59956756  0.64909401  0.85964776    -0.52800
C1851       C  0.56740832  0.61758866  0.84214056     0.10300
C1852       C  0.58355250  0.59511525  0.81609241     0.21300
C1853       C  0.63414414  0.60956147  0.86429358    -0.53600
C1854       C  0.60371301  0.57836606  0.84486792     0.10400
C1855       C  0.65214668  0.66004538  0.81286665    -0.53100
C1856       C  0.62251173  0.63109246  0.79146754     0.11000
H1857       H  0.59637276  0.67091376  0.87645088     0.15500
H1858       H  0.55911536  0.57113645  0.79926551     0.01300
H1859       H  0.65407668  0.60587365  0.88397647     0.15800
H1860       H  0.68031798  0.68737424  0.80069686     0.15600
C1861       C  0.62666678  0.49600919  0.87771578     0.87400
C1862       C  0.61326499  0.52739014  0.88300725    -0.52800
C1863       C  0.59533180  0.53475056  0.85217972     0.10300
C1864       C  0.58490349  0.50230165  0.82157385     0.21300
C1865       C  0.58959849  0.96653398  0.87645165    -0.53600
C1866       C  0.56139938  0.96359705  0.85021182     0.10400
C1867       C  0.65069004  0.50743665  0.83901248    -0.53100
C1868       C  0.62861815  0.50942412  0.80918098     0.11000
H1869       H  0.62120393  0.54485679  0.90830957     0.15500
H1870       H  0.56709263  0.50470929  0.79777069     0.01300
H1871       H  0.58118529  0.95177044  0.90495200     0.15800
H1872       H  0.68065126  0.50918239  0.83518399     0.15600
C1873       C  0.84257921  0.47767515  0.88360761     0.87400
C1874       C  0.84486155  0.94813711  0.86482561    -0.52800
C1875       C  0.86845930  0.95504020  0.83179781     0.10300
C1876       C  0.89092517  0.50520825  0.82069714     0.21300
C1877       C  0.88159014  0.51923766  0.88584086    -0.53600
C1878       C  0.90736203  0.53528344  0.85346641     0.10400
C1879       C  0.82590537  0.99710448  0.84067621    -0.53100
C1880       C  0.84593845  0.49630104  0.81521814     0.11000
H1881       H  0.82828265  0.91861569  0.88106519     0.15500
H1882       H  0.91140104  0.51650245  0.79403690     0.01300
H1883       H  0.88869261  0.53357839  0.91287435     0.15800
H1884       H  0.79649934  0.99673302  0.84220079     0.15600
C1885       C  0.85295365  0.86560557  0.77347462     0.87400
C1886       C  0.85688634  0.90722371  0.78067739    -0.52800
C1887       C  0.87036272  0.92048370  0.81587418     0.10300
C1888       C  0.87863550  0.89088765  0.84054818     0.21300
C1889       C  0.89649503  0.87193136  0.78011304    -0.53600
C1890       C  0.90973969  0.88493523  0.81556556     0.10400
C1891       C  0.82445404  0.83612412  0.80690552    -0.53100
C1892       C  0.83787495  0.84879875  0.84194727     0.11000
H1893       H  0.84741538  0.92338923  0.76084253     0.15500
H1894       H  0.88973037  0.90166525  0.86921706     0.01300
H1895       H  0.91325181  0.86327109  0.76030630     0.15800
H1896       H  0.79662148  0.80649732  0.80307472     0.15600
C1897       C  0.80670077  0.02062257  0.76380415    -0.15500
C1898       C  0.83102455  0.00406308  0.76922909    -0.30700
H1899       H  0.77343023  0.44493320  0.78503175     0.13500
H1900       H  0.83701918  0.98923941  0.74603758     0.14100
C1901       C  0.81757076  0.98076553  0.91200520    -0.15500
C1902       C  0.81886347  0.01471892  0.92390706    -0.30700
H1903       H  0.83821863  0.47218852  0.94723386     0.13500
H1904       H  0.83830223  0.04396356  0.90751957     0.14100
C1905       C  0.64886905  0.49047813  0.91083586    -0.15500
C1906       C  0.67131945  0.00995320  0.92062379    -0.30700
H1907       H  0.67735101  0.96622711  0.88933842     0.13500
H1908       H  0.70001310  0.55142070  0.90863928     0.14100
C1909       C  0.64551259  0.99646225  0.74033293    -0.15500
C1910       C  0.64176096  0.50713780  0.76968952    -0.30700
H1911       H  0.70495657  0.55293354  0.77398958     0.13500
H1912       H  0.61605915  0.93248544  0.75166357     0.14100
C1913       C  0.99158759  0.81591594  0.76899451    -0.15500
C1914       C  0.01056219  0.85582990  0.77723417    -0.30700
H1915       H  0.96596113  0.79323657  0.78824020     0.13500
H1916       H  0.53310943  0.88069116  0.75558088     0.14100
C1917       C  0.99958798  0.83395499  0.93188149    -0.15500
C1918       C  0.96550232  0.83104994  0.91687692    -0.30700
H1919       H  0.52991750  0.85010259  0.91216397     0.13500
H1920       H  0.93433392  0.81011208  0.92972333     0.14100
C1921       C  0.98778924  0.66727957  0.91668262    -0.15500
C1922       C  0.02126691  0.70209856  0.92761199    -0.30700
H1923       H  0.45983198  0.65744787  0.92803945     0.13500
H1924       H  0.05163830  0.71412693  0.91272361     0.14100
C1925       C  0.99363039  0.65438080  0.77474108    -0.15500
C1926       C  0.02289867  0.69260941  0.76223384    -0.30700
H1927       H  0.96709670  0.63551391  0.75799233     0.13500
H1928       H  0.55020998  0.71555865  0.77779366     0.14100
C1929       C  0.83450674  0.84832969  0.73636343    -0.15500
C1930       C  0.82523209  0.81016815  0.72837374    -0.30700
H1931       H  0.82241171  0.86415020  0.71919810     0.13500
H1932       H  0.83832602  0.79462694  0.74445854     0.14100
C1933       C  0.81534008  0.83133972  0.91123867    -0.15500
C1934       C  0.81771061  0.81990604  0.87607196    -0.30700
H1935       H  0.82739239  0.86349339  0.91639016     0.13500
H1936       H  0.80170629  0.78712753  0.87142255     0.14100
C1937       C  0.66337442  0.68039609  0.91694585    -0.15500
C1938       C  0.67329089  0.68312304  0.87955277    -0.30700
H1939       H  0.63195078  0.65862608  0.92880353     0.13500
H1940       H  0.70441749  0.70582333  0.86763730     0.14100
C1941       C  0.62964086  0.63989939  0.74933867    -0.15500
C1942       C  0.66799368  0.65109943  0.73368373    -0.30700
H1943       H  0.61059589  0.65012528  0.73527457     0.13500
H1944       H  0.68591038  0.63939384  0.74769565     0.14100
loop_ 
_geom_bond_atom_site_label_1 
_geom_bond_atom_site_label_2 
_geom_bond_distance 
_geom_bond_site_symmetry_2 
_ccdc_geom_bond_type 
O1            V9   1.901       .  S
O1           C11   1.263       .  A
O2          V333   1.902   1_554  S
O2           C12   1.265       .  A
O3            V9   1.906       .  S
O3           C13   1.264       .  A
O4          V333   1.922   1_554  S
O4           C14   1.268       .  A
O5           V10   1.908   1_554  S
O5           C14   1.266       .  A
O6          V172   1.914       .  S
O6           C13   1.268       .  A
O7           V10   1.887   1_554  S
O7           C12   1.260       .  A
O8          V172   1.888       .  S
O8           C11   1.263       .  A
V9          O164   1.908       .  S
V9          O166   1.914       .  S
V9          V172   2.088       .  T
V10         O330   1.915       .  S
V10         O332   1.888       .  S
V10         V333   2.088       .  T
C11         C155   1.469       .  S
C12         C148   1.463       .  S
C13         C151   1.483       .  S
C14         C160   1.489       .  S
O15          V23   1.881   1_554  S
O15         C997   1.256       .  A
O16         V185   1.871       .  S
O16         C998   1.257       .  A
O17          V23   1.919   1_554  S
O17         C999   1.268       .  A
O18         V185   1.912       .  S
O18        C1000   1.267       .  A
O19         V186   1.884       .  S
O19          C28   1.261       .  A
O20          V24   1.902   1_554  S
O20          C27   1.265       .  A
O21         V186   1.912       .  S
O21          C26   1.266       .  A
O22          V24   1.911   1_554  S
O22          C25   1.268       .  A
V23         O340   1.869       .  S
V23         O342   1.912       .  S
V23         V996   2.087   1_456  T
V24         O343   1.897       .  S
V24         O345   1.910       .  S
V24         V995   2.085       .  T
C25         O987   1.259       .  A
C25         C144   1.467       .  S
C26         O988   1.256       .  A
C26         C135   1.455       .  S
C27         O989   1.268       .  A
C27         C131   1.486       .  S
C28         O990   1.268       .  A
C28         C140   1.474       .  S
O29          V37   1.909       .  S
O29         C525   1.267       .  A
O30         V361   1.910       .  S
O30         C526   1.266       .  A
O31          V37   1.874       .  S
O31         C527   1.258       .  A
O32         V361   1.889       .  S
O32         C528   1.260       .  A
O33          V38   1.887       .  S
O33          C42   1.262       .  A
O34         V200   1.906       .  S
O34          C41   1.263       .  A
O35          V38   1.911       .  S
O35          C40   1.268       .  A
O36         V200   1.899       .  S
O36          C39   1.266       .  A
V37         O192   1.928       .  S
V37         O194   1.885       .  S
V37         V686   2.085   1_545  T
V38         O358   1.898   1_554  S
V38         O360   1.891   1_554  S
V38         V847   2.088       .  T
C39         O515   1.264       .  A
C39         C124   1.480       .  S
C40         O516   1.266       .  A
C40         C115   1.489       .  S
C41         O517   1.266       .  A
C41         C120   1.478       .  S
C42         O518   1.265       .  A
C42         C127   1.468       .  S
C43          C49   1.535       .  S
C43          C47   1.499       .  S
C43         C136   1.511       .  S
C43        C1016   1.523       .  S
C44        C1015   1.517   1_455  S
C44          H51   1.088       .  S
C44          C45   1.365       .  D
C45        C1018   1.567   1_455  S
C45          C84   1.517       .  S
C46          C50   1.551       .  S
C46          C48   1.570       .  S
C46        C1017   1.557       .  S
C46          H52   1.110       .  S
C47          H53   1.079       .  S
C47          C48   1.367       .  D
C48         C108   1.472       .  S
C49          H54   1.087       .  S
C49          C50   1.366       .  D
C50         C132   1.498       .  S
C55          C56   1.506       .  S
C55          C61   1.520       .  S
C55         C139   1.509       .  S
C55        C1031   1.521       .  S
C56          H63   1.087       .  S
C56          C57   1.376       .  D
C57          C58   1.569       .  S
C57          C96   1.506       .  S
C58          C62   1.549       .  S
C58        C1032   1.557       .  S
C58          H64   1.110       .  S
C59        C1027   1.510   1_455  S
C59          H65   1.079       .  S
C59          C60   1.379       .  D
C60        C1030   1.565   1_455  S
C60          C69   1.525       .  S
C61          H66   1.087       .  S
C61          C62   1.371       .  D
C62         C143   1.476       .  S
C67          C68   1.499       .  S
C67          C73   1.537       .  S
C67          C71   1.488       .  S
C67         C156   1.506       .  S
C68          H75   1.083       .  S
C68          C69   1.374       .  D
C69          C70   1.584       .  S
C70          C74   1.550       .  S
C70          C72   1.588       .  S
C70          H76   1.110       .  S
C71          H77   1.083       .  S
C71          C72   1.372       .  D
C72          C81   1.526       .  S
C73          H78   1.086       .  S
C73          C74   1.367       .  D
C74         C159   1.495       .  S
C79          C80   1.516   1_565  S
C79          C85   1.512       .  S
C79         C123   1.522       .  S
C79         C569   1.527       .  S
C80          H87   1.086       .  S
C80          C81   1.373       .  D
C81          C82   1.562   1_545  S
C82          C86   1.565       .  S
C82         C570   1.540       .  S
C82          H88   1.110       .  S
C83         C565   1.506       .  S
C83          H89   1.087       .  S
C83          C84   1.372       .  D
C84         C568   1.566       .  S
C85          H90   1.087       .  S
C85          C86   1.372       .  D
C86         C128   1.464       .  S
C91          C95   1.515   1_565  S
C91         C578   1.505       .  S
C91         C583   1.541   1_565  S
C91         C605   1.505       .  S
C92         C577   1.513       .  S
C92          H99   1.084       .  S
C92          C93   1.370       .  D
C93         C580   1.558       .  S
C93         C105   1.472       .  S
C94          C98   1.550       .  S
C94          C96   1.559       .  S
C94         C579   1.563   1_545  S
C94         H100   1.110       .  S
C95         H101   1.087       .  S
C95          C96   1.366       .  D
C97         C577   1.547       .  S
C97         H102   1.085       .  S
C97         C584   1.374       .  D
C98         C583   1.368       .  D
C98         C602   1.501       .  S
C103        C104   1.533       .  S
C103        C109   1.548       .  S
C103        C107   1.538       .  S
C103        C147   1.506       .  S
C104        H111   1.086       .  S
C104        C105   1.366       .  D
C105        C106   1.542       .  S
C106        C110   1.536       .  S
C106        C108   1.545       .  S
C106        H112   1.112       .  S
C107        H113   1.086       .  S
C107        C108   1.359       .  D
C109        H114   1.087       .  S
C109        C110   1.363       .  D
C110        C152   1.493       .  S
C115        H603   1.087       .  S
C115        C116   1.351       .  D
C116        H118   1.086       .  S
C116        C584   1.495       .  S
H117        C601   1.086       .  S
C119        C577   1.520       .  S
C119        H607   1.089       .  S
C119        C120   1.337       .  D
C120        H122   1.085       .  S
H121        C605   1.086       .  S
C123        H611   1.086       .  S
C123        C610   1.353   1_565  D
C124        H612   1.087       .  S
C124        C609   1.344       .  D
H125        C609   1.088       .  S
H126        C610   1.085       .  S
C127        H615   1.087       .  S
C127        C614   1.345       .  D
C128        H616   1.087       .  S
C128        C613   1.339   1_565  D
H129        C613   1.089       .  S
H130        C614   1.087       .  S
C131        H133   1.087       .  S
C131        C132   1.353       .  D
C132       H1106   1.086       .  S
H134       C1104   1.086   1_655  S
C135       H1109   1.088       .  S
C135        C136   1.341       .  D
C136        H138   1.086       .  S
H137       C1107   1.087       .  S
C139       H1113   1.087       .  S
C139        C140   1.349       .  D
C140        H142   1.086       .  S
H141       C1111   1.087       .  S
C143        H145   1.086       .  S
C143        C144   1.340       .  D
C144       H1118   1.088       .  S
H146       C1116   1.089       .  S
C147        H149   1.087       .  S
C147        C148   1.341       .  D
C148        H150   1.086       .  S
C151        H153   1.086       .  S
C151        C152   1.343       .  D
C152        H154   1.084       .  S
C155        H157   1.086       .  S
C155        C156   1.341       .  D
C156        H158   1.087       .  S
C159        H161   1.086       .  S
C159        C160   1.350       .  D
C160        H162   1.087       .  S
O163        V171   1.904       .  S
O163        C173   1.267       .  A
O164        C174   1.268       .  A
O165        V171   1.904       .  S
O165        C175   1.264       .  A
O166        C176   1.267       .  A
O167        V172   1.912       .  S
O167        C176   1.267       .  A
O168        V334   1.928       .  S
O168        C175   1.271       .  A
O169        V172   1.890       .  S
O169        C174   1.259       .  A
O170        V334   1.878       .  S
O170        C173   1.257       .  A
V171        O326   1.918       .  S
V171        O328   1.908       .  S
V171        V334   2.088       .  T
C173        C317   1.459       .  S
C174        C310   1.471       .  S
C175        C313   1.490       .  S
C176        C322   1.489       .  S
O177        V185   1.889       .  S
O177       C1159   1.261       .  A
O178        V347   1.875       .  S
O178       C1160   1.259       .  A
O179        V185   1.928       .  S
O179       C1161   1.269       .  A
O180        V347   1.915       .  S
O180       C1162   1.268       .  A
O181        V348   1.890       .  S
O181        C190   1.262       .  A
O182        V186   1.898       .  S
O182        C189   1.264       .  A
O183        V348   1.905       .  S
O183        C188   1.265       .  A
O184        V186   1.915       .  S
O184        C187   1.268       .  A
V185       V1158   2.089   1_455  T
V186       V1157   2.088       .  T
C187       O1149   1.259       .  A
C187        C306   1.469       .  S
C188       O1150   1.258       .  A
C188        C297   1.456       .  S
C189       O1151   1.269       .  A
C189        C293   1.484       .  S
C190       O1152   1.268       .  A
C190        C302   1.476       .  S
O191        V199   1.898       .  S
O191        C687   1.263       .  A
O192        C688   1.269       .  A
O193        V199   1.890       .  S
O193        C689   1.263       .  A
O194        C690   1.260       .  A
O195        V200   1.903       .  S
O195        C204   1.265       .  A
O196        V362   1.910       .  S
O196        C203   1.264       .  A
O197        V200   1.916       .  S
O197        C202   1.269       .  A
O198        V362   1.889       .  S
O198        C201   1.260       .  A
V199        O354   1.910       .  S
V199        O356   1.893       .  S
V199        V848   2.088   1_545  T
V200        V523   2.087       .  T
C201        O677   1.268       .  A
C201        C286   1.470       .  S
C202        O678   1.266       .  A
C202        C277   1.492       .  S
C203        O679   1.264       .  A
C203        C282   1.474       .  S
C204        O680   1.264       .  A
C204        C289   1.473       .  S
C205       C1178   1.515       .  S
C205        C211   1.529       .  S
C205        C209   1.507       .  S
C205        C298   1.508       .  S
C206       C1177   1.514   1_455  S
C206        H213   1.086       .  S
C206        C207   1.365       .  D
C207       C1180   1.567       .  S
C207        C246   1.516       .  S
C208       C1179   1.565       .  S
C208        C212   1.557       .  S
C208        C210   1.572       .  S
C208        H214   1.110       .  S
C209        H215   1.082       .  S
C209        C210   1.367       .  D
C210        C270   1.482       .  S
C211        H216   1.086       .  S
C211        C212   1.366       .  D
C212        C294   1.500       .  S
C217        C218   1.521       .  S
C217        C223   1.503       .  S
C217       C1193   1.511       .  S
C217        C301   1.525       .  S
C218        H225   1.084       .  S
C218        C219   1.376       .  D
C219        C220   1.549       .  S
C219        C258   1.508       .  S
C220        C224   1.566       .  S
C220       C1194   1.568       .  S
C220        H226   1.110       .  S
C221       C1189   1.522       .  S
C221        H227   1.087       .  S
C221        C222   1.380       .  D
C222       C1192   1.560   1_455  S
C222        C231   1.521       .  S
C223        H228   1.088       .  S
C223        C224   1.371       .  D
C224        C305   1.474       .  S
C229        C230   1.501       .  S
C229        C235   1.551       .  S
C229        C233   1.491       .  S
C229        C318   1.503       .  S
C230        H237   1.088       .  S
C230        C231   1.373       .  D
C231        C232   1.579       .  S
C232        C236   1.536       .  S
C232        C234   1.588       .  S
C232        H238   1.110       .  S
C233        H239   1.087       .  S
C233        C234   1.371       .  D
C234        C243   1.518       .  S
C235        H240   1.087       .  S
C235        C236   1.363       .  D
C236        C321   1.491       .  S
C241        C242   1.520   1_565  S
C241        C247   1.511       .  S
C241        C731   1.526       .  S
C241        C285   1.518   1_565  S
C242        H249   1.087       .  S
C242        C243   1.375       .  D
C243        C244   1.560   1_545  S
C244        C248   1.558       .  S
C244        C732   1.544       .  S
C244        H250   1.109       .  S
C245        C727   1.508       .  S
C245        H251   1.085       .  S
C245        C246   1.374       .  D
C246        C730   1.570       .  S
C247        H252   1.087       .  S
C247        C248   1.369       .  D
C248        C290   1.463       .  S
C253        C740   1.515   1_545  S
C253        C745   1.535       .  S
C253        C257   1.513       .  S
C253        C767   1.504   1_545  S
C254        C739   1.517       .  S
C254        H261   1.086       .  S
C254        C255   1.366       .  D
C255        C742   1.558       .  S
C255        C267   1.475       .  S
C256        C741   1.564   1_545  S
C256        C260   1.557       .  S
C256        C258   1.567       .  S
C256        H262   1.110       .  S
C257        H263   1.084       .  S
C257        C258   1.363       .  D
C259        C739   1.545       .  S
C259        H264   1.084       .  S
C259        C746   1.373       .  D
C260        C745   1.366       .  D
C260        C764   1.507       .  S
C265        C266   1.527       .  S
C265        C271   1.548       .  S
C265        C269   1.540       .  S
C265        C309   1.509       .  S
C266        H273   1.087       .  S
C266        C267   1.359       .  D
C267        C268   1.547       .  S
C268        C272   1.541       .  S
C268        C270   1.551       .  S
C268        H274   1.111       .  S
C269        H275   1.086       .  S
C269        C270   1.367       .  D
C271        H276   1.086       .  S
C271        C272   1.366       .  D
C272        C314   1.504       .  S
C277        H765   1.086       .  S
C277        C278   1.355       .  D
C278        H280   1.085       .  S
C278        C746   1.501       .  S
H279        C763   1.086   1_565  S
C281        C739   1.521       .  S
C281        H769   1.088       .  S
C281        C282   1.339       .  D
C282        H284   1.083       .  S
H283        C767   1.087       .  S
C285        H773   1.087   1_545  S
C285        C772   1.347       .  D
C286        H774   1.087       .  S
C286        C771   1.342       .  D
H287        C771   1.087       .  S
H288        C772   1.086       .  S
C289        H777   1.087       .  S
C289        C776   1.347       .  D
C290        H778   1.086       .  S
C290        C775   1.338   1_565  D
H291        C775   1.089       .  S
H292        C776   1.086       .  S
C293        H295   1.087       .  S
C293        C294   1.354       .  D
C294       H1268   1.085       .  S
H296       C1266   1.085       .  S
C297       H1271   1.088       .  S
C297        C298   1.340       .  D
C298        H300   1.087       .  S
H299       C1269   1.088       .  S
C301       H1275   1.088       .  S
C301        C302   1.354       .  D
C302        H304   1.080       .  S
H303       C1273   1.088   1_655  S
C305        H307   1.086       .  S
C305        C306   1.342       .  D
C306       H1280   1.089       .  S
H308       C1278   1.089       .  S
C309        H311   1.087       .  S
C309        C310   1.338       .  D
C310        H312   1.086       .  S
C313        H315   1.086       .  S
C313        C314   1.348       .  D
C314        H316   1.085       .  S
C317        H319   1.088       .  S
C317        C318   1.336       .  D
C318        H320   1.087       .  S
C321        H323   1.086       .  S
C321        C322   1.348       .  D
C322        H324   1.086       .  S
O325        V333   1.893       .  S
O325        C335   1.261       .  A
O326        C336   1.268       .  A
O327        V333   1.913       .  S
O327        C337   1.267       .  A
O328        C338   1.264       .  A
O329        V334   1.922       .  S
O329        C338   1.271       .  A
O330        C337   1.267       .  A
O331        V334   1.871       .  S
O331        C336   1.256       .  A
O332        C335   1.263       .  A
C335        C479   1.461       .  S
C336        C472   1.461       .  S
C337        C475   1.489       .  S
C338        C484   1.491       .  S
O339        V347   1.890       .  S
O339       C1321   1.262       .  A
O340       C1322   1.257       .  A
O341        V347   1.931       .  S
O341       C1323   1.270       .  A
O342       C1324   1.267   1_455  A
O343        C352   1.263       .  A
O344        V348   1.901       .  S
O344        C351   1.265       .  A
O345        C350   1.265       .  A
O346        V348   1.914       .  S
O346        C349   1.267       .  A
V347       V1320   2.084   1_455  T
V348       V1319   2.085       .  T
C349       O1311   1.262       .  A
C349        C468   1.473       .  S
C350       O1312   1.258       .  A
C350        C459   1.454       .  S
C351       O1313   1.270       .  A
C351        C455   1.489       .  S
C352       O1314   1.268       .  A
C352        C464   1.482       .  S
O353        V361   1.898   1_556  S
O353        C849   1.263       .  A
O354        C850   1.265       .  A
O355        V361   1.887   1_556  S
O355        C851   1.261       .  A
O356        C852   1.262       .  A
O357        V362   1.898       .  S
O357        C366   1.265       .  A
O358        C365   1.260       .  A
O359        V362   1.904       .  S
O359        C364   1.266       .  A
O360        C363   1.265       .  A
V361        V524   2.089   1_545  T
V362        V685   2.087       .  T
C363        O839   1.264       .  A
C363        C448   1.479       .  S
C364        O840   1.267       .  A
C364        C439   1.486       .  S
C365        O841   1.267       .  A
C365        C444   1.472       .  S
C366        O842   1.262       .  A
C366        C451   1.468       .  S
C367       C1340   1.518       .  S
C367        C373   1.531       .  S
C367        C371   1.504       .  S
C367        C460   1.512       .  S
C368       C1339   1.515   1_455  S
C368        H375   1.086       .  S
C368        C369   1.367       .  D
C369       C1342   1.561   1_455  S
C369        C408   1.517       .  S
C370       C1341   1.561       .  S
C370        C374   1.559       .  S
C370        C372   1.576       .  S
C370        H376   1.110       .  S
C371        H377   1.082       .  S
C371        C372   1.371       .  D
C372        C432   1.476       .  S
C373        H378   1.087       .  S
C373        C374   1.363       .  D
C374        C456   1.506       .  S
C379        C380   1.515       .  S
C379        C385   1.502       .  S
C379       C1355   1.514       .  S
C379        C463   1.531       .  S
C380        H387   1.084       .  S
C380        C381   1.378       .  D
C381        C382   1.559       .  S
C381        C420   1.515       .  S
C382        C386   1.568       .  S
C382       C1356   1.565       .  S
C382        H388   1.110       .  S
C383       C1351   1.508   1_455  S
C383        H389   1.085       .  S
C383        C384   1.378       .  D
C384       C1354   1.564   1_455  S
C384        C393   1.525       .  S
C385        H390   1.088       .  S
C385        C386   1.370       .  D
C386        C467   1.479       .  S
C391        C392   1.496       .  S
C391        C397   1.541       .  S
C391        C395   1.486       .  S
C391        C480   1.500       .  S
C392        H399   1.085       .  S
C392        C393   1.370       .  D
C393        C394   1.588       .  S
C394        C398   1.547       .  S
C394        C396   1.586       .  S
C394        H400   1.110       .  S
C395        H401   1.085       .  S
C395        C396   1.371       .  D
C396        C405   1.520       .  S
C397        H402   1.087       .  S
C397        C398   1.366       .  D
C398        C483   1.496       .  S
C403        C404   1.521   1_565  S
C403        C409   1.510       .  S
C403        C893   1.522       .  S
C403        C447   1.519       .  S
C404        H411   1.087       .  S
C404        C405   1.375       .  D
C405        C406   1.555   1_545  S
C406        C410   1.566       .  S
C406        C894   1.543       .  S
C406        H412   1.110       .  S
C407        C889   1.496       .  S
C407        H413   1.085       .  S
C407        C408   1.368       .  D
C408        C892   1.576       .  S
C409        H414   1.088       .  S
C409        C410   1.373       .  D
C410        C452   1.466       .  S
C415        C902   1.512       .  S
C415        C907   1.537   1_565  S
C415        C419   1.511   1_565  S
C415        C929   1.502       .  S
C416        C901   1.514       .  S
C416        H423   1.085       .  S
C416        C417   1.369       .  D
C417        C904   1.558       .  S
C417        C429   1.475       .  S
C418        C903   1.567   1_545  S
C418        C422   1.555       .  S
C418        C420   1.570       .  S
C418        H424   1.110       .  S
C419        H425   1.084       .  S
C419        C420   1.366       .  D
C421        C901   1.548       .  S
C421        H426   1.084       .  S
C421        C908   1.372       .  D
C422        C907   1.367       .  D
C422        C926   1.505       .  S
C427        C428   1.531       .  S
C427        C433   1.547       .  S
C427        C431   1.540       .  S
C427        C471   1.511       .  S
C428        H435   1.086       .  S
C428        C429   1.370       .  D
C429        C430   1.547       .  S
C430        C434   1.539       .  S
C430        C432   1.546       .  S
C430        H436   1.112       .  S
C431        H437   1.087       .  S
C431        C432   1.358       .  D
C433        H438   1.087       .  S
C433        C434   1.361       .  D
C434        C476   1.497       .  S
C439        H927   1.087       .  S
C439        C440   1.349       .  D
C440        H442   1.085       .  S
C440        C908   1.493       .  S
H441        C925   1.086       .  S
C443        C901   1.520       .  S
C443        H931   1.089       .  S
C443        C444   1.336       .  D
C444        H446   1.083       .  S
H445        C929   1.087       .  S
C447        H935   1.087       .  S
C447        C934   1.350   1_565  D
C448        H936   1.086       .  S
C448        C933   1.342       .  D
H449        C933   1.087       .  S
H450        C934   1.086       .  S
C451        H939   1.087       .  S
C451        C938   1.343       .  D
C452        H940   1.087       .  S
C452        C937   1.343   1_565  D
H453        C937   1.087       .  S
H454        C938   1.086       .  S
C455        H457   1.087       .  S
C455        C456   1.358       .  D
C456       H1430   1.085       .  S
H458       C1428   1.085       .  S
C459       H1433   1.089       .  S
C459        C460   1.345       .  D
C460        H462   1.086       .  S
H461       C1431   1.089       .  S
C463       H1437   1.088       .  S
C463        C464   1.354       .  D
C464        H466   1.081       .  S
H465       C1435   1.087       .  S
C467        H469   1.086       .  S
C467        C468   1.347       .  D
C468       H1442   1.088       .  S
H470       C1440   1.089       .  S
C471        H473   1.086       .  S
C471        C472   1.340       .  D
C472        H474   1.088       .  S
C475        H477   1.086       .  S
C475        C476   1.348       .  D
C476        H478   1.085       .  S
C479        H481   1.087       .  S
C479        C480   1.338       .  D
C480        H482   1.088       .  S
C483        H485   1.085       .  S
C483        C484   1.355       .  D
C484        H486   1.087       .  S
O487        V495   1.882       .  S
O487        C497   1.259       .  A
O488        V819   1.893       .  S
O488        C498   1.264       .  A
O489        V495   1.909       .  S
O489        C499   1.266       .  A
O490        V819   1.913       .  S
O490        C500   1.267       .  A
O491        V496   1.908   1_554  S
O491        C500   1.266       .  A
O492        V658   1.906       .  S
O492        C499   1.266       .  A
O493        V496   1.894   1_554  S
O493        C498   1.261       .  A
O494        V658   1.890       .  S
O494        C497   1.261       .  A
V495        O650   1.910       .  S
V495        O652   1.913       .  S
V495        V658   2.085       .  T
V496        O816   1.906       .  S
V496        O818   1.882       .  S
V496        V819   2.090   1_556  T
C497        C641   1.443       .  S
C498        C634   1.461       .  S
C499        C637   1.481       .  S
C500        C646   1.484       .  S
O501        V509   1.883       .  S
O501       C1483   1.258       .  A
O502        V671   1.871       .  S
O502       C1484   1.257       .  A
O503        V509   1.929       .  S
O503       C1485   1.270   1_455  A
O504        V671   1.921       .  S
O504       C1486   1.270       .  A
O505        V672   1.888       .  S
O505        C514   1.263       .  A
O506        V510   1.885       .  S
O506        C513   1.260       .  A
O507        V672   1.913       .  S
O507        C512   1.266       .  A
O508        V510   1.908       .  S
O508        C511   1.267       .  A
V509        O826   1.871   1_554  S
V509        O828   1.925   1_554  S
V509       V1482   2.087   1_455  T
V510        O829   1.880   1_554  S
V510        O831   1.912   1_554  S
V510       V1481   2.087       .  T
C511       O1473   1.259       .  A
C511        C630   1.465       .  S
C512       O1474   1.260       .  A
C512        C621   1.463       .  S
C513       O1475   1.269       .  A
C513        C617   1.473       .  S
C514       O1476   1.268       .  A
C514        C626   1.483       .  S
O515        V523   1.907       .  S
O516        V847   1.911       .  S
O517        V523   1.896       .  S
O518        V847   1.907       .  S
O519        V524   1.904       .  S
O519        C528   1.267   1_565  A
O520        V686   1.900       .  S
O520        C527   1.264   1_565  A
O521        V524   1.918       .  S
O521        C526   1.268   1_565  A
O522        V686   1.903       .  S
O522        C525   1.262   1_565  A
V523        O678   1.914       .  S
V523        O680   1.901       .  S
V524        O844   1.890   1_554  S
V524        O846   1.908   1_554  S
C525        C610   1.472       .  S
C526        C601   1.487       .  S
C527        C606   1.453       .  S
C528        C613   1.469       .  S
C529       C1502   1.522       .  S
C529        C535   1.533       .  S
C529        C533   1.510       .  S
C529        C622   1.514       .  S
C530       C1501   1.523   1_455  S
C530        H537   1.084       .  S
C530        C531   1.364       .  D
C531       C1504   1.561   1_455  S
C531        C570   1.504       .  S
C532       C1503   1.551       .  S
C532        C536   1.542       .  S
C532        C534   1.562       .  S
C532        H538   1.110       .  S
C533        H539   1.082       .  S
C533        C534   1.370       .  D
C534        C594   1.471       .  S
C535        H540   1.087       .  S
C535        C536   1.365       .  D
C536        C618   1.490       .  S
C541        C542   1.501       .  S
C541        C547   1.523       .  S
C541       C1517   1.521       .  S
C541        C625   1.516       .  S
C542        H549   1.085       .  S
C542        C543   1.369       .  D
C543        C544   1.570       .  S
C543        C582   1.510       .  S
C544        C548   1.547       .  S
C544       C1518   1.560       .  S
C544        H550   1.110       .  S
C545       C1513   1.519   1_455  S
C545        H551   1.085       .  S
C545        C546   1.379       .  D
C546       C1516   1.560   1_455  S
C546        C555   1.521       .  S
C547        H552   1.087       .  S
C547        C548   1.373       .  D
C548        C629   1.474       .  S
C553        C554   1.510       .  S
C553        C559   1.499       .  S
C553        C557   1.515       .  S
C553        C642   1.499       .  S
C554        H561   1.084       .  S
C554        C555   1.370       .  D
C555        C556   1.569       .  S
C556        C560   1.579       .  S
C556        C558   1.563       .  S
C556        H562   1.110       .  S
C557        H563   1.084       .  S
C557        C558   1.373       .  D
C558        C567   1.513       .  S
C559        H564   1.087       .  S
C559        C560   1.365       .  D
C560        C645   1.486       .  S
C565        C566   1.527       .  S
C565        C571   1.522       .  S
C565        C609   1.515       .  S
C566        H573   1.085       .  S
C566        C567   1.376       .  D
C567        C568   1.553       .  S
C568        C572   1.554       .  S
C568        H574   1.110       .  S
C569        H575   1.083       .  S
C569        C570   1.378       .  D
C571        H576   1.086       .  S
C571        C572   1.374       .  D
C572        C614   1.476       .  S
C577        C581   1.512       .  S
C578        H585   1.083       .  S
C578        C579   1.366       .  D
C579        C591   1.470       .  S
C580        C584   1.545       .  S
C580        C582   1.553       .  S
C580        H586   1.110       .  S
C581        H587   1.085       .  S
C581        C582   1.365       .  D
C583        H588   1.086   1_545  S
C589        C590   1.531       .  S
C589        C595   1.544       .  S
C589        C593   1.537       .  S
C589        C633   1.501       .  S
C590        H597   1.087       .  S
C590        C591   1.362       .  D
C591        C592   1.548       .  S
C592        C596   1.535       .  S
C592        C594   1.540       .  S
C592        H598   1.112       .  S
C593        H599   1.086       .  S
C593        C594   1.362       .  D
C595        H600   1.087       .  S
C595        C596   1.363       .  D
C596        C638   1.489       .  S
C601        C602   1.352       .  D
C602        H604   1.086   1_545  S
C605        C606   1.340   1_565  D
C606        H608   1.088       .  S
C617        H619   1.088       .  S
C617        C618   1.347       .  D
C618       H1592   1.085       .  S
H620       C1590   1.085       .  S
C621       H1595   1.088       .  S
C621        C622   1.346       .  D
C622        H624   1.086       .  S
H623       C1593   1.088       .  S
C625       H1599   1.087       .  S
C625        C626   1.348       .  D
C626        H628   1.086       .  S
H627       C1597   1.087       .  S
C629        H631   1.086       .  S
C629        C630   1.338       .  D
C630       H1604   1.088       .  S
H632       C1602   1.088       .  S
C633        H635   1.087       .  S
C633        C634   1.340       .  D
C634        H636   1.086       .  S
C637        H639   1.086       .  S
C637        C638   1.344       .  D
C638        H640   1.085       .  S
C641        H643   1.087       .  S
C641        C642   1.337       .  D
C642        H644   1.087       .  S
C645        H647   1.086       .  S
C645        C646   1.354       .  D
C646        H648   1.088       .  S
O649        V657   1.883       .  S
O649        C659   1.258       .  A
O650        C660   1.266       .  A
O651        V657   1.911       .  S
O651        C661   1.266       .  A
O652        C662   1.268       .  A
O653        V658   1.908       .  S
O653        C662   1.266       .  A
O654        V820   1.907       .  S
O654        C661   1.266       .  A
O655        V658   1.898       .  S
O655        C660   1.263       .  A
O656        V820   1.884       .  S
O656        C659   1.261       .  A
V657        O812   1.905       .  S
V657        O814   1.920       .  S
V657        V820   2.085       .  T
C659        C803   1.442       .  S
C660        C796   1.474       .  S
C661        C799   1.482       .  S
C662        C808   1.485       .  S
O663        V671   1.886       .  S
O663       C1645   1.259       .  A
O664        V833   1.870       .  S
O664       C1646   1.256       .  A
O665        V671   1.925       .  S
O665       C1647   1.269       .  A
O666        V833   1.927       .  S
O666       C1648   1.271       .  A
O667        V834   1.887       .  S
O667        C676   1.262       .  A
O668        V672   1.892       .  S
O668        C675   1.262       .  A
O669        V834   1.920       .  S
O669        C674   1.267       .  A
O670        V672   1.913       .  S
O670        C673   1.267       .  A
V671       V1644   2.087   1_455  T
V672       V1643   2.087       .  T
C673       O1635   1.261       .  A
C673        C792   1.472       .  S
C674       O1636   1.258       .  A
C674        C783   1.464       .  S
C675       O1637   1.268       .  A
C675        C779   1.478       .  S
C676       O1638   1.270       .  A
C676        C788   1.488       .  S
O677        V685   1.914       .  S
O679        V685   1.895       .  S
O681        V686   1.905       .  S
O681        C690   1.267   1_565  A
O682        V848   1.888       .  S
O682        C689   1.261   1_565  A
O683        V686   1.909       .  S
O683        C688   1.267   1_565  A
O684        V848   1.910       .  S
O684        C687   1.265   1_565  A
V685        O840   1.916       .  S
V685        O842   1.900       .  S
C687        C772   1.469       .  S
C688        C763   1.493       .  S
C689        C768   1.458       .  S
C690        C775   1.466       .  S
C691       C1664   1.527       .  S
C691        C697   1.535       .  S
C691        C695   1.515       .  S
C691        C784   1.518       .  S
C692       C1663   1.525   1_455  S
C692        H699   1.084       .  S
C692        C693   1.367       .  D
C693       C1666   1.558   1_455  S
C693        C732   1.503       .  S
C694       C1665   1.554       .  S
C694        C698   1.543       .  S
C694        C696   1.558       .  S
C694        H700   1.110       .  S
C695        H701   1.081       .  S
C695        C696   1.371       .  D
C696        C756   1.477       .  S
C697        H702   1.087       .  S
C697        C698   1.363       .  D
C698        C780   1.490       .  S
C703        C704   1.500       .  S
C703        C709   1.529       .  S
C703       C1679   1.524       .  S
C703        C787   1.521       .  S
C704        H711   1.082       .  S
C704        C705   1.370       .  D
C705        C706   1.578       .  S
C705        C744   1.514       .  S
C706        C710   1.546       .  S
C706       C1680   1.563       .  S
C706        H712   1.110       .  S
C707       C1675   1.525   1_455  S
C707        H713   1.087       .  S
C707        C708   1.385       .  D
C708       C1678   1.559   1_455  S
C708        C717   1.531       .  S
C709        H714   1.086       .  S
C709        C710   1.371       .  D
C710        C791   1.482       .  S
C715        C716   1.503       .  S
C715        C721   1.490       .  S
C715        C719   1.521       .  S
C715        C804   1.493       .  S
C716        H723   1.086       .  S
C716        C717   1.368       .  D
C717        C718   1.582       .  S
C718        C722   1.589       .  S
C718        C720   1.559       .  S
C718        H724   1.109       .  S
C719        H725   1.076       .  S
C719        C720   1.378       .  D
C720        C729   1.525       .  S
C721        H726   1.088       .  S
C721        C722   1.363       .  D
C722        C807   1.488       .  S
C727        C728   1.515       .  S
C727        C733   1.520       .  S
C727        C771   1.516       .  S
C728        H735   1.078       .  S
C728        C729   1.376       .  D
C729        C730   1.572       .  S
C730        C734   1.554       .  S
C730        H736   1.110       .  S
C731        H737   1.082       .  S
C731        C732   1.377       .  D
C733        H738   1.087       .  S
C733        C734   1.370       .  D
C734        C776   1.482       .  S
C739        C743   1.515       .  S
C740        H747   1.085       .  S
C740        C741   1.368       .  D
C741        C753   1.480       .  S
C742        C746   1.553       .  S
C742        C744   1.551       .  S
C742        H748   1.110       .  S
C743        H749   1.082       .  S
C743        C744   1.371       .  D
C745        H750   1.086       .  S
C751        C752   1.537       .  S
C751        C757   1.546       .  S
C751        C755   1.540       .  S
C751        C795   1.517       .  S
C752        H759   1.086       .  S
C752        C753   1.367       .  D
C753        C754   1.549       .  S
C754        C758   1.534       .  S
C754        C756   1.540       .  S
C754        H760   1.112       .  S
C755        H761   1.086       .  S
C755        C756   1.363       .  D
C757        H762   1.087       .  S
C757        C758   1.365       .  D
C758        C800   1.490       .  S
C763        C764   1.357       .  D
C764        H766   1.085       .  S
C767        C768   1.345   1_565  D
C768        H770   1.088       .  S
C779        H781   1.088       .  S
C779        C780   1.347       .  D
C780       H1754   1.086       .  S
H782       C1752   1.085       .  S
C783       H1757   1.089       .  S
C783        C784   1.345       .  D
C784        H786   1.086       .  S
H785       C1755   1.089       .  S
C787       H1761   1.086       .  S
C787        C788   1.351       .  D
C788        H790   1.086       .  S
H789       C1759   1.086       .  S
C791        H793   1.086       .  S
C791        C792   1.342       .  D
C792       H1766   1.088       .  S
H794       C1764   1.088       .  S
C795        H797   1.087       .  S
C795        C796   1.346       .  D
C796        H798   1.087       .  S
C799        H801   1.087       .  S
C799        C800   1.342       .  D
C800        H802   1.084       .  S
C803        H805   1.087       .  S
C803        C804   1.337       .  D
C804        H806   1.088       .  S
C807        H809   1.086       .  S
C807        C808   1.357       .  D
C808        H810   1.087       .  S
O811        V819   1.882   1_556  S
O811        C821   1.259       .  A
O812        C822   1.267       .  A
O813        V819   1.908   1_556  S
O813        C823   1.265       .  A
O814        C824   1.269       .  A
O815        V820   1.911       .  S
O815        C824   1.267       .  A
O816        C823   1.267       .  A
O817        V820   1.898       .  S
O817        C822   1.262       .  A
O818        C821   1.259       .  A
C821        C965   1.437       .  S
C822        C958   1.473       .  S
C823        C961   1.484       .  S
C824        C970   1.491       .  S
O825        V833   1.880       .  S
O825       C1807   1.257       .  A
O826       C1808   1.257       .  A
O827        V833   1.930       .  S
O827       C1809   1.271   1_455  A
O828       C1810   1.271       .  A
O829        C838   1.261       .  A
O830        V834   1.894       .  S
O830        C837   1.262       .  A
O831        C836   1.266       .  A
O832        V834   1.913       .  S
O832        C835   1.268       .  A
V833       V1806   2.087   1_455  T
V834       V1805   2.087       .  T
C835       O1797   1.258       .  A
C835        C954   1.466       .  S
C836       O1798   1.258       .  A
C836        C945   1.456       .  S
C837       O1799   1.271       .  A
C837        C941   1.485       .  S
C838       O1800   1.269       .  A
C838        C950   1.479       .  S
O839        V847   1.908   1_556  S
O841        V847   1.905   1_556  S
O843        V848   1.898       .  S
O843        C852   1.265   1_565  A
O844        C851   1.262   1_565  A
O845        V848   1.923       .  S
O845        C850   1.269   1_565  A
O846        C849   1.264   1_565  A
C849        C934   1.467       .  S
C850        C925   1.490       .  S
C851        C930   1.457       .  S
C852        C937   1.468       .  S
C853       C1826   1.522       .  S
C853        C859   1.537       .  S
C853        C857   1.512       .  S
C853        C946   1.511       .  S
C854       C1825   1.525   1_455  S
C854        H861   1.085       .  S
C854        C855   1.366       .  D
C855       C1828   1.558   1_455  S
C855        C894   1.502       .  S
C856       C1827   1.565       .  S
C856        C860   1.545       .  S
C856        C858   1.563       .  S
C856        H862   1.109       .  S
C857        H863   1.083       .  S
C857        C858   1.370       .  D
C858        C918   1.478       .  S
C859        H864   1.087       .  S
C859        C860   1.363       .  D
C860        C942   1.499       .  S
C865        C866   1.500       .  S
C865        C871   1.522       .  S
C865       C1841   1.519       .  S
C865        C949   1.511       .  S
C866        H873   1.084       .  S
C866        C867   1.370       .  D
C867        C868   1.573       .  S
C867        C906   1.509       .  S
C868        C872   1.548       .  S
C868       C1842   1.561       .  S
C868        H874   1.110       .  S
C869       C1837   1.521   1_455  S
C869        H875   1.085       .  S
C869        C870   1.384       .  D
C870       C1840   1.559   1_455  S
C870        C879   1.526       .  S
C871        H876   1.087       .  S
C871        C872   1.371       .  D
C872        C953   1.477       .  S
C877        C878   1.509       .  S
C877        C883   1.490       .  S
C877        C881   1.512       .  S
C877        C966   1.497       .  S
C878        H885   1.084       .  S
C878        C879   1.366       .  D
C879        C880   1.575       .  S
C880        C884   1.597       .  S
C880        C882   1.571       .  S
C880        H886   1.110       .  S
C881        H887   1.084       .  S
C881        C882   1.376       .  D
C882        C891   1.529       .  S
C883        H888   1.087       .  S
C883        C884   1.365       .  D
C884        C969   1.494       .  S
C889        C890   1.517       .  S
C889        C895   1.526       .  S
C889        C933   1.512       .  S
C890        H897   1.085       .  S
C890        C891   1.378       .  D
C891        C892   1.572       .  S
C892        C896   1.549       .  S
C892        H898   1.110       .  S
C893        H899   1.083       .  S
C893        C894   1.375       .  D
C895        H900   1.086       .  S
C895        C896   1.373       .  D
C896        C938   1.477       .  S
C901        C905   1.508       .  S
C902        H909   1.083       .  S
C902        C903   1.362       .  D
C903        C915   1.476       .  S
C904        C908   1.544       .  S
C904        C906   1.554       .  S
C904        H910   1.110       .  S
C905        H911   1.084       .  S
C905        C906   1.367       .  D
C907        H912   1.086       .  S
C913        C914   1.534       .  S
C913        C919   1.539       .  S
C913        C917   1.542       .  S
C913        C957   1.511       .  S
C914        H921   1.086       .  S
C914        C915   1.362       .  D
C915        C916   1.548       .  S
C916        C920   1.539       .  S
C916        C918   1.544       .  S
C916        H922   1.111       .  S
C917        H923   1.086       .  S
C917        C918   1.370       .  D
C919        H924   1.087       .  S
C919        C920   1.358       .  D
C920        C962   1.486       .  S
C925        C926   1.355       .  D
C926        H928   1.086       .  S
C929        C930   1.343   1_565  D
C930        H932   1.087       .  S
C941        H943   1.088       .  S
C941        C942   1.351       .  D
C942       H1916   1.085       .  S
H944       C1914   1.085       .  S
C945       H1919   1.089       .  S
C945        C946   1.344       .  D
C946        H948   1.086       .  S
H947       C1917   1.088   1_455  S
C949       H1923   1.087       .  S
C949        C950   1.348       .  D
C950        H952   1.086       .  S
H951       C1921   1.087       .  S
C953        H955   1.086       .  S
C953        C954   1.340       .  D
C954       H1928   1.087       .  S
H956       C1926   1.088       .  S
C957        H959   1.087       .  S
C957        C958   1.344       .  D
C958        H960   1.086       .  S
C961        H963   1.083       .  S
C961        C962   1.344       .  D
C962        H964   1.087       .  S
C965        H967   1.087       .  S
C965        C966   1.338       .  D
C966        H968   1.086       .  S
C969        H971   1.085       .  S
C969        C970   1.359       .  D
C970        H972   1.087       .  S
O973        V981   1.893       .  S
O973        C983   1.261       .  A
O974       V1305   1.907   1_554  S
O974        C984   1.265       .  A
O975        V981   1.907       .  S
O975        C985   1.265       .  A
O976       V1305   1.923   1_554  S
O976        C986   1.270       .  A
O977        V982   1.899   1_554  S
O977        C986   1.263       .  A
O978       V1144   1.911       .  S
O978        C985   1.266       .  A
O979        V982   1.892   1_554  S
O979        C984   1.262       .  A
O980       V1144   1.888       .  S
O980        C983   1.261       .  A
V981       O1136   1.906       .  S
V981       O1138   1.913       .  S
V981       V1144   2.087       .  T
V982       O1302   1.906       .  S
V982       O1304   1.882       .  S
V982       V1305   2.088       .  T
C983       C1127   1.451       .  S
C984       C1120   1.468       .  S
C985       C1123   1.481       .  S
C986       C1132   1.482       .  S
O987        V995   1.885   1_554  S
O988       V1157   1.866       .  S
O989        V995   1.923   1_554  S
O990       V1157   1.912       .  S
O991       V1158   1.894       .  S
O991       C1000   1.263   1_655  A
O992        V996   1.921       .  S
O992        C999   1.268   1_655  A
O993       V1158   1.896       .  S
O993        C998   1.263   1_655  A
O994        V996   1.917       .  S
O994        C997   1.271   1_655  A
V995       O1312   1.870       .  S
V995       O1314   1.916       .  S
V996       O1315   1.901   1_554  S
V996       O1317   1.913   1_554  S
C997       C1116   1.467       .  S
C998       C1107   1.450       .  S
C999       C1103   1.495       .  S
C1000      C1112   1.479       .  S
O1001      V1009   1.901       .  S
O1001      C1497   1.264       .  A
O1002      V1333   1.916       .  S
O1002      C1498   1.267       .  A
O1003      V1009   1.882       .  S
O1003      C1499   1.260       .  A
O1004      V1333   1.882       .  S
O1004      C1500   1.257       .  A
O1005      V1010   1.891       .  S
O1005      C1014   1.263       .  A
O1006      V1172   1.903       .  S
O1006      C1013   1.262       .  A
O1007      V1010   1.913       .  S
O1007      C1012   1.268       .  A
O1008      V1172   1.893       .  S
O1008      C1011   1.264       .  A
V1009      O1164   1.916       .  S
V1009      O1166   1.898       .  S
V1009      V1658   2.088   1_545  T
V1010      O1330   1.899   1_554  S
V1010      O1332   1.895   1_554  S
V1010      V1819   2.088       .  T
C1011      O1487   1.264       .  A
C1011      C1096   1.475       .  S
C1012      O1488   1.265       .  A
C1012      C1087   1.487       .  S
C1013      O1489   1.266       .  A
C1013      C1092   1.474       .  S
C1014      O1490   1.265       .  A
C1014      C1099   1.471       .  S
C1015      C1021   1.540       .  S
C1015      C1019   1.500       .  S
C1015      C1108   1.502       .  S
C1016      H1023   1.088       .  S
C1016      C1017   1.367       .  D
C1017      C1056   1.512       .  S
C1018      C1022   1.558   1_655  S
C1018      C1020   1.569       .  S
C1018      H1024   1.110   1_655  S
C1019      H1025   1.082       .  S
C1019      C1020   1.363       .  D
C1020      C1080   1.473       .  S
C1021      H1026   1.086   1_655  S
C1021      C1022   1.369   1_655  D
C1022      C1104   1.506       .  S
C1027      C1028   1.513       .  S
C1027      C1033   1.505       .  S
C1027      C1111   1.520       .  S
C1028      H1035   1.085       .  S
C1028      C1029   1.379       .  D
C1029      C1030   1.556       .  S
C1029      C1068   1.510       .  S
C1030      C1034   1.563       .  S
C1030      H1036   1.110       .  S
C1031      H1037   1.085       .  S
C1031      C1032   1.372       .  D
C1032      C1041   1.517       .  S
C1033      H1038   1.087       .  S
C1033      C1034   1.369       .  D
C1034      C1115   1.471       .  S
C1039      C1040   1.505       .  S
C1039      C1045   1.502       .  S
C1039      C1043   1.505       .  S
C1039      C1128   1.502       .  S
C1040      H1047   1.083       .  S
C1040      C1041   1.375       .  D
C1041      C1042   1.567       .  S
C1042      C1046   1.578       .  S
C1042      C1044   1.573       .  S
C1042      H1048   1.110       .  S
C1043      H1049   1.080       .  S
C1043      C1044   1.376       .  D
C1044      C1053   1.524       .  S
C1045      H1050   1.087       .  S
C1045      C1046   1.364       .  D
C1046      C1131   1.489       .  S
C1051      C1052   1.515   1_565  S
C1051      C1057   1.519   1_565  S
C1051      C1541   1.499       .  S
C1051      C1095   1.508       .  S
C1052      H1059   1.081       .  S
C1052      C1053   1.376       .  D
C1053      C1054   1.567       .  S
C1054      C1058   1.552       .  S
C1054      C1542   1.569   1_545  S
C1054      H1060   1.110       .  S
C1055      C1537   1.503       .  S
C1055      H1061   1.086       .  S
C1055      C1056   1.370       .  D
C1056      C1540   1.568       .  S
C1057      H1062   1.087       .  S
C1057      C1058   1.368       .  D
C1058      C1100   1.476       .  S
C1063      C1550   1.506       .  S
C1063      C1555   1.547   1_565  S
C1063      C1067   1.516   1_565  S
C1063      C1577   1.502       .  S
C1064      C1549   1.515       .  S
C1064      H1071   1.083       .  S
C1064      C1065   1.370       .  D
C1065      C1552   1.557       .  S
C1065      C1077   1.479       .  S
C1066      C1551   1.566       .  S
C1066      C1070   1.546   1_565  S
C1066      C1068   1.566   1_565  S
C1066      H1072   1.110   1_565  S
C1067      H1073   1.088       .  S
C1067      C1068   1.362       .  D
C1069      C1549   1.547       .  S
C1069      H1074   1.084       .  S
C1069      C1556   1.372       .  D
C1070      C1555   1.369       .  D
C1070      C1574   1.499       .  S
C1075      C1076   1.537       .  S
C1075      C1081   1.544       .  S
C1075      C1079   1.538       .  S
C1075      C1119   1.511       .  S
C1076      H1083   1.086       .  S
C1076      C1077   1.371       .  D
C1077      C1078   1.542       .  S
C1078      C1082   1.537       .  S
C1078      C1080   1.547       .  S
C1078      H1084   1.112       .  S
C1079      H1085   1.087       .  S
C1079      C1080   1.359       .  D
C1081      H1086   1.087       .  S
C1081      C1082   1.361       .  D
C1082      C1124   1.492       .  S
C1087      H1575   1.087       .  S
C1087      C1088   1.351       .  D
C1088      H1090   1.086       .  S
C1088      C1556   1.493       .  S
H1089      C1573   1.086       .  S
C1091      C1549   1.521       .  S
C1091      H1579   1.089       .  S
C1091      C1092   1.337       .  D
C1092      H1094   1.084       .  S
H1093      C1577   1.087       .  S
C1095      H1583   1.087       .  S
C1095      C1582   1.342   1_565  D
C1096      H1584   1.086       .  S
C1096      C1581   1.343       .  D
H1097      C1581   1.088       .  S
H1098      C1582   1.086       .  S
C1099      H1587   1.087       .  S
C1099      C1586   1.346       .  D
C1100      H1588   1.086   1_545  S
C1100      C1585   1.338       .  D
H1101      C1585   1.088       .  S
H1102      C1586   1.086       .  S
C1103      H1105   1.086       .  S
C1103      C1104   1.356       .  D
C1107      C1108   1.339   1_455  D
C1108      H1110   1.087       .  S
C1111      C1112   1.349   1_655  D
C1112      H1114   1.087       .  S
C1115      H1117   1.086       .  S
C1115      C1116   1.339   1_655  D
C1119      H1121   1.086       .  S
C1119      C1120   1.345       .  D
C1120      H1122   1.087       .  S
C1123      H1125   1.087       .  S
C1123      C1124   1.345       .  D
C1124      H1126   1.085       .  S
C1127      H1129   1.087       .  S
C1127      C1128   1.340       .  D
C1128      H1130   1.088       .  S
C1131      H1133   1.086       .  S
C1131      C1132   1.353       .  D
C1132      H1134   1.088       .  S
O1135      V1143   1.893       .  S
O1135      C1145   1.260       .  A
O1136      C1146   1.267       .  A
O1137      V1143   1.913       .  S
O1137      C1147   1.267       .  A
O1138      C1148   1.266       .  A
O1139      V1144   1.912       .  S
O1139      C1148   1.267       .  A
O1140      V1306   1.913       .  S
O1140      C1147   1.267       .  A
O1141      V1144   1.886       .  S
O1141      C1146   1.259       .  A
O1142      V1306   1.884       .  S
O1142      C1145   1.263       .  A
V1143      O1298   1.902       .  S
V1143      O1300   1.923       .  S
V1143      V1306   2.088       .  T
C1145      C1289   1.459       .  S
C1146      C1282   1.465       .  S
C1147      C1285   1.490       .  S
C1148      C1294   1.484       .  S
O1149      V1157   1.883       .  S
O1150      V1319   1.875       .  S
O1151      V1157   1.925       .  S
O1152      V1319   1.914       .  S
O1153      V1320   1.896       .  S
O1153      C1162   1.262   1_655  A
O1154      V1158   1.905       .  S
O1154      C1161   1.265   1_655  A
O1155      V1320   1.902       .  S
O1155      C1160   1.264   1_655  A
O1156      V1158   1.901       .  S
O1156      C1159   1.265   1_655  A
C1159      C1278   1.467       .  S
C1160      C1269   1.453       .  S
C1161      C1265   1.490   1_455  S
C1162      C1274   1.476       .  S
O1163      V1171   1.893       .  S
O1163      C1659   1.262       .  A
O1164      C1660   1.267       .  A
O1165      V1171   1.887       .  S
O1165      C1661   1.261       .  A
O1166      C1662   1.264       .  A
O1167      V1172   1.900       .  S
O1167      C1176   1.264       .  A
O1168      V1334   1.909       .  S
O1168      C1175   1.264       .  A
O1169      V1172   1.911       .  S
O1169      C1174   1.268       .  A
O1170      V1334   1.892       .  S
O1170      C1173   1.261       .  A
V1171      O1326   1.906       .  S
V1171      O1328   1.888       .  S
V1171      V1820   2.089   1_545  T
V1172      V1495   2.088       .  T
C1173      O1649   1.268       .  A
C1173      C1258   1.473       .  S
C1174      O1650   1.266       .  A
C1174      C1249   1.488       .  S
C1175      O1651   1.264       .  A
C1175      C1254   1.472       .  S
C1176      O1652   1.265       .  A
C1176      C1261   1.474       .  S
C1177      C1183   1.529   1_655  S
C1177      C1181   1.506       .  S
C1177      C1270   1.506       .  S
C1178      H1185   1.086       .  S
C1178      C1179   1.367       .  D
C1179      C1218   1.514       .  S
C1180      C1184   1.563       .  S
C1180      C1182   1.572   1_455  S
C1180      H1186   1.110       .  S
C1181      H1187   1.081       .  S
C1181      C1182   1.366       .  D
C1182      C1242   1.479       .  S
C1183      H1188   1.086       .  S
C1183      C1184   1.365       .  D
C1184      C1266   1.507       .  S
C1189      C1190   1.532   1_455  S
C1189      C1195   1.507   1_455  S
C1189      C1273   1.520       .  S
C1190      H1197   1.082       .  S
C1190      C1191   1.379       .  D
C1191      C1192   1.537       .  S
C1191      C1230   1.506       .  S
C1192      C1196   1.560       .  S
C1192      H1198   1.109       .  S
C1193      H1199   1.078       .  S
C1193      C1194   1.381       .  D
C1194      C1203   1.533       .  S
C1195      H1200   1.088       .  S
C1195      C1196   1.368       .  D
C1196      C1277   1.464       .  S
C1201      C1202   1.506       .  S
C1201      C1207   1.541       .  S
C1201      C1205   1.477       .  S
C1201      C1290   1.497       .  S
C1202      H1209   1.088       .  S
C1202      C1203   1.372       .  D
C1203      C1204   1.585       .  S
C1204      C1208   1.545       .  S
C1204      C1206   1.598       .  S
C1204      H1210   1.110       .  S
C1205      H1211   1.084       .  S
C1205      C1206   1.372       .  D
C1206      C1215   1.522       .  S
C1207      H1212   1.087       .  S
C1207      C1208   1.364       .  D
C1208      C1293   1.494       .  S
C1213      C1214   1.517   1_565  S
C1213      C1219   1.512       .  S
C1213      C1703   1.520       .  S
C1213      C1257   1.521       .  S
C1214      H1221   1.086       .  S
C1214      C1215   1.374       .  D
C1215      C1216   1.557   1_545  S
C1216      C1220   1.564       .  S
C1216      C1704   1.548       .  S
C1216      H1222   1.110       .  S
C1217      C1699   1.509       .  S
C1217      H1223   1.085       .  S
C1217      C1218   1.373       .  D
C1218      C1702   1.567       .  S
C1219      H1224   1.087       .  S
C1219      C1220   1.375       .  D
C1220      C1262   1.465       .  S
C1225      C1712   1.515       .  S
C1225      C1717   1.535   1_565  S
C1225      C1229   1.517   1_565  S
C1225      C1739   1.500       .  S
C1226      C1711   1.514       .  S
C1226      H1233   1.084       .  S
C1226      C1227   1.365       .  D
C1227      C1714   1.555       .  S
C1227      C1239   1.473       .  S
C1228      C1713   1.561   1_545  S
C1228      C1232   1.548       .  S
C1228      C1230   1.567       .  S
C1228      H1234   1.109       .  S
C1229      H1235   1.083       .  S
C1229      C1230   1.364       .  D
C1231      C1711   1.544       .  S
C1231      H1236   1.084       .  S
C1231      C1718   1.373       .  D
C1232      C1717   1.364       .  D
C1232      C1736   1.496       .  S
C1237      C1238   1.528       .  S
C1237      C1243   1.547       .  S
C1237      C1241   1.539       .  S
C1237      C1281   1.506       .  S
C1238      H1245   1.086       .  S
C1238      C1239   1.364       .  D
C1239      C1240   1.547       .  S
C1240      C1244   1.540       .  S
C1240      C1242   1.549       .  S
C1240      H1246   1.112       .  S
C1241      H1247   1.086       .  S
C1241      C1242   1.363       .  D
C1243      H1248   1.087       .  S
C1243      C1244   1.360       .  D
C1244      C1286   1.495       .  S
C1249      H1737   1.086       .  S
C1249      C1250   1.352       .  D
C1250      H1252   1.085       .  S
C1250      C1718   1.497       .  S
H1251      C1735   1.087       .  S
C1253      C1711   1.517       .  S
C1253      H1741   1.089       .  S
C1253      C1254   1.338       .  D
C1254      H1256   1.084       .  S
H1255      C1739   1.087       .  S
C1257      H1745   1.086       .  S
C1257      C1744   1.350       .  D
C1258      H1746   1.087       .  S
C1258      C1743   1.344       .  D
H1259      C1743   1.087       .  S
H1260      C1744   1.087   1_545  S
C1261      H1749   1.087       .  S
C1261      C1748   1.348       .  D
C1262      H1750   1.086       .  S
C1262      C1747   1.345   1_565  D
H1263      C1747   1.088       .  S
H1264      C1748   1.086       .  S
C1265      H1267   1.086       .  S
C1265      C1266   1.359   1_655  D
C1269      C1270   1.341   1_455  D
C1270      H1272   1.086       .  S
C1273      C1274   1.353       .  D
C1274      H1276   1.084       .  S
C1277      H1279   1.086       .  S
C1277      C1278   1.341   1_655  D
C1281      H1283   1.087       .  S
C1281      C1282   1.339       .  D
C1282      H1284   1.087       .  S
C1285      H1287   1.087       .  S
C1285      C1286   1.348       .  D
C1286      H1288   1.084       .  S
C1289      H1291   1.085       .  S
C1289      C1290   1.338       .  D
C1290      H1292   1.087       .  S
C1293      H1295   1.086       .  S
C1293      C1294   1.351       .  D
C1294      H1296   1.087       .  S
O1297      V1305   1.888       .  S
O1297      C1307   1.259       .  A
O1298      C1308   1.265       .  A
O1299      V1305   1.913       .  S
O1299      C1309   1.268       .  A
O1300      C1310   1.268       .  A
O1301      V1306   1.906       .  S
O1301      C1310   1.265       .  A
O1302      C1309   1.265       .  A
O1303      V1306   1.885       .  S
O1303      C1308   1.259       .  A
O1304      C1307   1.263       .  A
C1307      C1451   1.455       .  S
C1308      C1444   1.460       .  S
C1309      C1447   1.485       .  S
C1310      C1456   1.486       .  S
O1311      V1319   1.890       .  S
O1313      V1319   1.930       .  S
O1315      C1324   1.262       .  A
O1316      V1320   1.905       .  S
O1316      C1323   1.267   1_655  A
O1317      C1322   1.266   1_655  A
O1318      V1320   1.911       .  S
O1318      C1321   1.267   1_655  A
C1321      C1440   1.472       .  S
C1322      C1431   1.457       .  S
C1323      C1427   1.493   1_455  S
C1324      C1436   1.472       .  S
O1325      V1333   1.910   1_556  S
O1325      C1821   1.267       .  A
O1326      C1822   1.264       .  A
O1327      V1333   1.878   1_556  S
O1327      C1823   1.259       .  A
O1328      C1824   1.260       .  A
O1329      V1334   1.897       .  S
O1329      C1338   1.265       .  A
O1330      C1337   1.261       .  A
O1331      V1334   1.910       .  S
O1331      C1336   1.267       .  A
O1332      C1335   1.266       .  A
V1333      V1496   2.088   1_545  T
V1334      V1657   2.087       .  T
C1335      O1811   1.263       .  A
C1335      C1420   1.478       .  S
C1336      O1812   1.268       .  A
C1336      C1411   1.492       .  S
C1337      O1813   1.267       .  A
C1337      C1416   1.472       .  S
C1338      O1814   1.263       .  A
C1338      C1423   1.468       .  S
C1339      C1345   1.529       .  S
C1339      C1343   1.505       .  S
C1339      C1432   1.513       .  S
C1340      H1347   1.087       .  S
C1340      C1341   1.366       .  D
C1341      C1380   1.515       .  S
C1342      C1346   1.565   1_655  S
C1342      C1344   1.570       .  S
C1342      H1348   1.110   1_655  S
C1343      H1349   1.082       .  S
C1343      C1344   1.369       .  D
C1344      C1404   1.473       .  S
C1345      H1350   1.087       .  S
C1345      C1346   1.365   1_655  D
C1346      C1428   1.509       .  S
C1351      C1352   1.515       .  S
C1351      C1357   1.505       .  S
C1351      C1435   1.522       .  S
C1352      H1359   1.084       .  S
C1352      C1353   1.380       .  D
C1353      C1354   1.560       .  S
C1353      C1392   1.514       .  S
C1354      C1358   1.566       .  S
C1354      H1360   1.110       .  S
C1355      H1361   1.076       .  S
C1355      C1356   1.387       .  D
C1356      C1365   1.535       .  S
C1357      H1362   1.087       .  S
C1357      C1358   1.371       .  D
C1358      C1439   1.473       .  S
C1363      C1364   1.504       .  S
C1363      C1369   1.537       .  S
C1363      C1367   1.473       .  S
C1363      C1452   1.493       .  S
C1364      H1371   1.087       .  S
C1364      C1365   1.368       .  D
C1365      C1366   1.591       .  S
C1366      C1370   1.549       .  S
C1366      C1368   1.603       .  S
C1366      H1372   1.110       .  S
C1367      H1373   1.081       .  S
C1367      C1368   1.373       .  D
C1368      C1377   1.532       .  S
C1369      H1374   1.087       .  S
C1369      C1370   1.364       .  D
C1370      C1455   1.497       .  S
C1375      C1376   1.517   1_565  S
C1375      C1381   1.516       .  S
C1375      C1865   1.530       .  S
C1375      C1419   1.528       .  S
C1376      H1383   1.086       .  S
C1376      C1377   1.375       .  D
C1377      C1378   1.563   1_545  S
C1378      C1382   1.569       .  S
C1378      C1866   1.539       .  S
C1378      H1384   1.109       .  S
C1379      C1861   1.499       .  S
C1379      H1385   1.085       .  S
C1379      C1380   1.371       .  D
C1380      C1864   1.570       .  S
C1381      H1386   1.087       .  S
C1381      C1382   1.373       .  D
C1382      C1424   1.467       .  S
C1387      C1874   1.513       .  S
C1387      C1879   1.541       .  S
C1387      C1391   1.517   1_565  S
C1387      C1901   1.507       .  S
C1388      C1873   1.515       .  S
C1388      H1395   1.083       .  S
C1388      C1389   1.368       .  D
C1389      C1876   1.558       .  S
C1389      C1401   1.478       .  S
C1390      C1875   1.565       .  S
C1390      C1394   1.546   1_565  S
C1390      C1392   1.567   1_565  S
C1390      H1396   1.110   1_565  S
C1391      H1397   1.086       .  S
C1391      C1392   1.364       .  D
C1393      C1873   1.548       .  S
C1393      H1398   1.084       .  S
C1393      C1880   1.373       .  D
C1394      C1879   1.366   1_545  D
C1394      C1898   1.497       .  S
C1399      C1400   1.531       .  S
C1399      C1405   1.546       .  S
C1399      C1403   1.536       .  S
C1399      C1443   1.505       .  S
C1400      H1407   1.086       .  S
C1400      C1401   1.368       .  D
C1401      C1402   1.547       .  S
C1402      C1406   1.538       .  S
C1402      C1404   1.548       .  S
C1402      H1408   1.112       .  S
C1403      H1409   1.086       .  S
C1403      C1404   1.358       .  D
C1405      H1410   1.086       .  S
C1405      C1406   1.361       .  D
C1406      C1448   1.492       .  S
C1411      H1899   1.087       .  S
C1411      C1412   1.353       .  D
C1412      H1414   1.085       .  S
C1412      C1880   1.500       .  S
H1413      C1897   1.086       .  S
C1415      C1873   1.520       .  S
C1415      H1903   1.089       .  S
C1415      C1416   1.335       .  D
C1416      H1418   1.083       .  S
H1417      C1901   1.086       .  S
C1419      H1907   1.086       .  S
C1419      C1906   1.356   1_565  D
C1420      H1908   1.086       .  S
C1420      C1905   1.342       .  D
H1421      C1905   1.087       .  S
H1422      C1906   1.085       .  S
C1423      H1911   1.087       .  S
C1423      C1910   1.343       .  D
C1424      H1912   1.087       .  S
C1424      C1909   1.338       .  D
H1425      C1909   1.087   1_545  S
H1426      C1910   1.086       .  S
C1427      H1429   1.087       .  S
C1427      C1428   1.361   1_655  D
C1431      C1432   1.344   1_455  D
C1432      H1434   1.086       .  S
C1435      C1436   1.349       .  D
C1436      H1438   1.086       .  S
C1439      H1441   1.086       .  S
C1439      C1440   1.344   1_655  D
C1443      H1445   1.087       .  S
C1443      C1444   1.340       .  D
C1444      H1446   1.087       .  S
C1447      H1449   1.087       .  S
C1447      C1448   1.347       .  D
C1448      H1450   1.085       .  S
C1451      H1453   1.086       .  S
C1451      C1452   1.335       .  D
C1452      H1454   1.088       .  S
C1455      H1457   1.086       .  S
C1455      C1456   1.352       .  D
C1456      H1458   1.087       .  S
O1459      V1467   1.884       .  S
O1459      C1469   1.259       .  A
O1460      V1791   1.887   1_554  S
O1460      C1470   1.264       .  A
O1461      V1467   1.911       .  S
O1461      C1471   1.266       .  A
O1462      V1791   1.912   1_554  S
O1462      C1472   1.267       .  A
O1463      V1468   1.910   1_554  S
O1463      C1472   1.266       .  A
O1464      V1630   1.900       .  S
O1464      C1471   1.264       .  A
O1465      V1468   1.897   1_554  S
O1465      C1470   1.261       .  A
O1466      V1630   1.890       .  S
O1466      C1469   1.261       .  A
V1467      O1622   1.901       .  S
V1467      O1624   1.917       .  S
V1467      V1630   2.089       .  T
V1468      O1788   1.901       .  S
V1468      O1790   1.882       .  S
V1468      V1791   2.090       .  T
C1469      C1613   1.445       .  S
C1470      C1606   1.462       .  S
C1471      C1609   1.478       .  S
C1472      C1618   1.485       .  S
O1473      V1481   1.885       .  S
O1474      V1643   1.879       .  S
O1475      V1481   1.923       .  S
O1476      V1643   1.918       .  S
O1477      V1644   1.889       .  S
O1477      C1486   1.262   1_655  A
O1478      V1482   1.898       .  S
O1478      C1485   1.263       .  A
O1479      V1644   1.906       .  S
O1479      C1484   1.265   1_655  A
O1480      V1482   1.911       .  S
O1480      C1483   1.268   1_655  A
V1481      O1798   1.871   1_554  S
V1481      O1800   1.919   1_554  S
V1482      O1801   1.894   1_554  S
V1482      O1803   1.914   1_554  S
C1483      C1602   1.465       .  S
C1484      C1593   1.453       .  S
C1485      C1589   1.487       .  S
C1486      C1598   1.485       .  S
O1487      V1495   1.906       .  S
O1488      V1819   1.907       .  S
O1489      V1495   1.900       .  S
O1490      V1819   1.908       .  S
O1491      V1496   1.919       .  S
O1491      C1500   1.270   1_565  A
O1492      V1658   1.890       .  S
O1492      C1499   1.262   1_565  A
O1493      V1496   1.917       .  S
O1493      C1498   1.267   1_565  A
O1494      V1658   1.892       .  S
O1494      C1497   1.264   1_565  A
V1495      O1650   1.911       .  S
V1495      O1652   1.904       .  S
V1496      O1816   1.904   1_554  S
V1496      O1818   1.911   1_554  S
C1497      C1582   1.470       .  S
C1498      C1573   1.491       .  S
C1499      C1578   1.454       .  S
C1500      C1585   1.470       .  S
C1501      C1507   1.541       .  S
C1501      C1505   1.511       .  S
C1501      C1594   1.505       .  S
C1502      H1509   1.087       .  S
C1502      C1503   1.371       .  D
C1503      C1542   1.503       .  S
C1504      C1508   1.543   1_655  S
C1504      C1506   1.559       .  S
C1504      H1510   1.110   1_655  S
C1505      H1511   1.085       .  S
C1505      C1506   1.367       .  D
C1506      C1566   1.468       .  S
C1507      H1512   1.087       .  S
C1507      C1508   1.363   1_655  D
C1508      C1590   1.498       .  S
C1513      C1514   1.504       .  S
C1513      C1519   1.523       .  S
C1513      C1597   1.519       .  S
C1514      H1521   1.084       .  S
C1514      C1515   1.373       .  D
C1515      C1516   1.570       .  S
C1515      C1554   1.511       .  S
C1516      C1520   1.546       .  S
C1516      H1522   1.110       .  S
C1517      H1523   1.085       .  S
C1517      C1518   1.379       .  D
C1518      C1527   1.521       .  S
C1519      H1524   1.087   1_655  S
C1519      C1520   1.372       .  D
C1520      C1601   1.475       .  S
C1525      C1526   1.510       .  S
C1525      C1531   1.498       .  S
C1525      C1529   1.513       .  S
C1525      C1614   1.500       .  S
C1526      H1533   1.084       .  S
C1526      C1527   1.371       .  D
C1527      C1528   1.570       .  S
C1528      C1532   1.581       .  S
C1528      C1530   1.561       .  S
C1528      H1534   1.110       .  S
C1529      H1535   1.084       .  S
C1529      C1530   1.374       .  D
C1530      C1539   1.512       .  S
C1531      H1536   1.087       .  S
C1531      C1532   1.363       .  D
C1532      C1617   1.487       .  S
C1537      C1538   1.522       .  S
C1537      C1543   1.522       .  S
C1537      C1581   1.509       .  S
C1538      H1545   1.085       .  S
C1538      C1539   1.375       .  D
C1539      C1540   1.557       .  S
C1540      C1544   1.554       .  S
C1540      H1546   1.110       .  S
C1541      H1547   1.085       .  S
C1541      C1542   1.371       .  D
C1543      H1548   1.086       .  S
C1543      C1544   1.372       .  D
C1544      C1586   1.478       .  S
C1549      C1553   1.511       .  S
C1550      H1557   1.084       .  S
C1550      C1551   1.361       .  D
C1551      C1563   1.469       .  S
C1552      C1556   1.545       .  S
C1552      C1554   1.557       .  S
C1552      H1558   1.110       .  S
C1553      H1559   1.084       .  S
C1553      C1554   1.366       .  D
C1555      H1560   1.087       .  S
C1561      C1562   1.534       .  S
C1561      C1567   1.538       .  S
C1561      C1565   1.535       .  S
C1561      C1605   1.499       .  S
C1562      H1569   1.086       .  S
C1562      C1563   1.361       .  D
C1563      C1564   1.545       .  S
C1564      C1568   1.538       .  S
C1564      C1566   1.542       .  S
C1564      H1570   1.111       .  S
C1565      H1571   1.086       .  S
C1565      C1566   1.366       .  D
C1567      H1572   1.087       .  S
C1567      C1568   1.354       .  D
C1568      C1610   1.486       .  S
C1573      C1574   1.350       .  D
C1574      H1576   1.086   1_545  S
C1577      C1578   1.342   1_565  D
C1578      H1580   1.087       .  S
C1589      H1591   1.087       .  S
C1589      C1590   1.351   1_655  D
C1593      C1594   1.341   1_455  D
C1594      H1596   1.086       .  S
C1597      C1598   1.351   1_655  D
C1598      H1600   1.086       .  S
C1601      H1603   1.086       .  S
C1601      C1602   1.338   1_655  D
C1605      H1607   1.088       .  S
C1605      C1606   1.344       .  D
C1606      H1608   1.086       .  S
C1609      H1611   1.084       .  S
C1609      C1610   1.343       .  D
C1610      H1612   1.088       .  S
C1613      H1615   1.087       .  S
C1613      C1614   1.336       .  D
C1614      H1616   1.087       .  S
C1617      H1619   1.086       .  S
C1617      C1618   1.355       .  D
C1618      H1620   1.088       .  S
O1621      V1629   1.877       .  S
O1621      C1631   1.256       .  A
O1622      C1632   1.264       .  A
O1623      V1629   1.909       .  S
O1623      C1633   1.265       .  A
O1624      C1634   1.269       .  A
O1625      V1630   1.905       .  S
O1625      C1634   1.265       .  A
O1626      V1792   1.900       .  S
O1626      C1633   1.265       .  A
O1627      V1630   1.903       .  S
O1627      C1632   1.265       .  A
O1628      V1792   1.883       .  S
O1628      C1631   1.262       .  A
V1629      O1784   1.894       .  S
V1629      O1786   1.917       .  S
V1629      V1792   2.086       .  T
C1631      C1775   1.436       .  S
C1632      C1768   1.473       .  S
C1633      C1771   1.476       .  S
C1634      C1780   1.485       .  S
O1635      V1643   1.891       .  S
O1636      V1805   1.872       .  S
O1637      V1643   1.920       .  S
O1638      V1805   1.925       .  S
O1639      V1806   1.888       .  S
O1639      C1648   1.262   1_655  A
O1640      V1644   1.890       .  S
O1640      C1647   1.262   1_655  A
O1641      V1806   1.914       .  S
O1641      C1646   1.267   1_655  A
O1642      V1644   1.903       .  S
O1642      C1645   1.266   1_655  A
C1645      C1764   1.463       .  S
C1646      C1755   1.458       .  S
C1647      C1751   1.478   1_455  S
C1648      C1760   1.490       .  S
O1649      V1657   1.915       .  S
O1651      V1657   1.893       .  S
O1653      V1658   1.890       .  S
O1653      C1662   1.263   1_565  A
O1654      V1820   1.889       .  S
O1654      C1661   1.262   1_565  A
O1655      V1658   1.907       .  S
O1655      C1660   1.266   1_565  A
O1656      V1820   1.912       .  S
O1656      C1659   1.265   1_565  A
V1657      O1812   1.919       .  S
V1657      O1814   1.899       .  S
C1659      C1744   1.468   1_545  S
C1660      C1735   1.485   1_545  S
C1661      C1740   1.456       .  S
C1662      C1747   1.467       .  S
C1663      C1669   1.534       .  S
C1663      C1667   1.511       .  S
C1663      C1756   1.509       .  S
C1664      H1671   1.084       .  S
C1664      C1665   1.367       .  D
C1665      C1704   1.505       .  S
C1666      C1670   1.545   1_655  S
C1666      C1668   1.557       .  S
C1666      H1672   1.110   1_655  S
C1667      H1673   1.082       .  S
C1667      C1668   1.366       .  D
C1668      C1728   1.473       .  S
C1669      H1674   1.087       .  S
C1669      C1670   1.364   1_655  D
C1670      C1752   1.494       .  S
C1675      C1676   1.502       .  S
C1675      C1681   1.529       .  S
C1675      C1759   1.522       .  S
C1676      H1683   1.082       .  S
C1676      C1677   1.370       .  D
C1677      C1678   1.573       .  S
C1677      C1716   1.510       .  S
C1678      C1682   1.538       .  S
C1678      H1684   1.110       .  S
C1679      H1685   1.087       .  S
C1679      C1680   1.385       .  D
C1680      C1689   1.532       .  S
C1681      H1686   1.087   1_655  S
C1681      C1682   1.371       .  D
C1682      C1763   1.470       .  S
C1687      C1688   1.500       .  S
C1687      C1693   1.490       .  S
C1687      C1691   1.519       .  S
C1687      C1776   1.489       .  S
C1688      H1695   1.086       .  S
C1688      C1689   1.369       .  D
C1689      C1690   1.585       .  S
C1690      C1694   1.588       .  S
C1690      C1692   1.562       .  S
C1690      H1696   1.109       .  S
C1691      H1697   1.080       .  S
C1691      C1692   1.372       .  D
C1692      C1701   1.522       .  S
C1693      H1698   1.088       .  S
C1693      C1694   1.364       .  D
C1694      C1779   1.486       .  S
C1699      C1700   1.518       .  S
C1699      C1705   1.521       .  S
C1699      C1743   1.520       .  S
C1700      H1707   1.082       .  S
C1700      C1701   1.378       .  D
C1701      C1702   1.565       .  S
C1702      C1706   1.556       .  S
C1702      H1708   1.110       .  S
C1703      H1709   1.082       .  S
C1703      C1704   1.375       .  D
C1705      H1710   1.086       .  S
C1705      C1706   1.372       .  D
C1706      C1748   1.483       .  S
C1711      C1715   1.513       .  S
C1712      H1719   1.086       .  S
C1712      C1713   1.366       .  D
C1713      C1725   1.479       .  S
C1714      C1718   1.550       .  S
C1714      C1716   1.552       .  S
C1714      H1720   1.110       .  S
C1715      H1721   1.082       .  S
C1715      C1716   1.370       .  D
C1717      H1722   1.087       .  S
C1723      C1724   1.541       .  S
C1723      C1729   1.541       .  S
C1723      C1727   1.541       .  S
C1723      C1767   1.514       .  S
C1724      H1731   1.086       .  S
C1724      C1725   1.370       .  D
C1725      C1726   1.543       .  S
C1726      C1730   1.533       .  S
C1726      C1728   1.537       .  S
C1726      H1732   1.112       .  S
C1727      H1733   1.086       .  S
C1727      C1728   1.364       .  D
C1729      H1734   1.087       .  S
C1729      C1730   1.360       .  D
C1730      C1772   1.483       .  S
C1735      C1736   1.353   1_565  D
C1736      H1738   1.086       .  S
C1739      C1740   1.342   1_565  D
C1740      H1742   1.087       .  S
C1751      H1753   1.088       .  S
C1751      C1752   1.348   1_655  D
C1755      C1756   1.340   1_455  D
C1756      H1758   1.087       .  S
C1759      C1760   1.352   1_655  D
C1760      H1762   1.086       .  S
C1763      H1765   1.086       .  S
C1763      C1764   1.337   1_655  D
C1767      H1769   1.086       .  S
C1767      C1768   1.349       .  D
C1768      H1770   1.087       .  S
C1771      H1773   1.087       .  S
C1771      C1772   1.341       .  D
C1772      H1774   1.084       .  S
C1775      H1777   1.087       .  S
C1775      C1776   1.337       .  D
C1776      H1778   1.088       .  S
C1779      H1781   1.086       .  S
C1779      C1780   1.356       .  D
C1780      H1782   1.087       .  S
O1783      V1791   1.883       .  S
O1783      C1793   1.259       .  A
O1784      C1794   1.265       .  A
O1785      V1791   1.905       .  S
O1785      C1795   1.264       .  A
O1786      C1796   1.269       .  A
O1787      V1792   1.908       .  S
O1787      C1796   1.265       .  A
O1788      C1795   1.265       .  A
O1789      V1792   1.896       .  S
O1789      C1794   1.261       .  A
O1790      C1793   1.260       .  A
C1793      C1937   1.440       .  S
C1794      C1930   1.465       .  S
C1795      C1933   1.474       .  S
C1796      C1942   1.485       .  S
O1797      V1805   1.884       .  S
O1799      V1805   1.931       .  S
O1801      C1810   1.263   1_655  A
O1802      V1806   1.891       .  S
O1802      C1809   1.261       .  A
O1803      C1808   1.267   1_655  A
O1804      V1806   1.909       .  S
O1804      C1807   1.268   1_655  A
C1807      C1926   1.462       .  S
C1808      C1917   1.458   1_455  S
C1809      C1913   1.481       .  S
C1810      C1922   1.492       .  S
O1811      V1819   1.904   1_556  S
O1813      V1819   1.904   1_556  S
O1815      V1820   1.904       .  S
O1815      C1824   1.266   1_565  A
O1816      C1823   1.264   1_565  A
O1817      V1820   1.918       .  S
O1817      C1822   1.268   1_565  A
O1818      C1821   1.264   1_565  A
C1821      C1906   1.480       .  S
C1822      C1897   1.484       .  S
C1823      C1902   1.457       .  S
C1824      C1909   1.468   1_545  S
C1825      C1831   1.540       .  S
C1825      C1829   1.510       .  S
C1825      C1918   1.509       .  S
C1826      H1833   1.082       .  S
C1826      C1827   1.365       .  D
C1827      C1866   1.511       .  S
C1828      C1832   1.541       .  S
C1828      C1830   1.560       .  S
C1828      H1834   1.110       .  S
C1829      H1835   1.085       .  S
C1829      C1830   1.367       .  D
C1830      C1890   1.471       .  S
C1831      H1836   1.087       .  S
C1831      C1832   1.365       .  D
C1832      C1914   1.497   1_655  S
C1837      C1838   1.504       .  S
C1837      C1843   1.525       .  S
C1837      C1921   1.526       .  S
C1838      H1845   1.083       .  S
C1838      C1839   1.373       .  D
C1839      C1840   1.569       .  S
C1839      C1878   1.511       .  S
C1840      C1844   1.541       .  S
C1840      H1846   1.110       .  S
C1841      H1847   1.086       .  S
C1841      C1842   1.378       .  D
C1842      C1851   1.522       .  S
C1843      H1848   1.087       .  S
C1843      C1844   1.372       .  D
C1844      C1925   1.470       .  S
C1849      C1850   1.507       .  S
C1849      C1855   1.494       .  S
C1849      C1853   1.512       .  S
C1849      C1938   1.496       .  S
C1850      H1857   1.084       .  S
C1850      C1851   1.370       .  D
C1851      C1852   1.571       .  S
C1852      C1856   1.587       .  S
C1852      C1854   1.567       .  S
C1852      H1858   1.110       .  S
C1853      H1859   1.083       .  S
C1853      C1854   1.373       .  D
C1854      C1863   1.521       .  S
C1855      H1860   1.087       .  S
C1855      C1856   1.365       .  D
C1856      C1941   1.488       .  S
C1861      C1862   1.517       .  S
C1861      C1867   1.523       .  S
C1861      C1905   1.513       .  S
C1862      H1869   1.084       .  S
C1862      C1863   1.378       .  D
C1863      C1864   1.566       .  S
C1864      C1868   1.552       .  S
C1864      H1870   1.110       .  S
C1865      H1871   1.081       .  S
C1865      C1866   1.381       .  D
C1867      H1872   1.086       .  S
C1867      C1868   1.372       .  D
C1868      C1910   1.477       .  S
C1873      C1877   1.508       .  S
C1874      H1881   1.084       .  S
C1874      C1875   1.366       .  D
C1875      C1887   1.474       .  S
C1876      C1880   1.549       .  S
C1876      C1878   1.558       .  S
C1876      H1882   1.110       .  S
C1877      H1883   1.083       .  S
C1877      C1878   1.366       .  D
C1879      H1884   1.086       .  S
C1885      C1886   1.535       .  S
C1885      C1891   1.536       .  S
C1885      C1889   1.538       .  S
C1885      C1929   1.503       .  S
C1886      H1893   1.086       .  S
C1886      C1887   1.363       .  D
C1887      C1888   1.543       .  S
C1888      C1892   1.537       .  S
C1888      C1890   1.543       .  S
C1888      H1894   1.111       .  S
C1889      H1895   1.086       .  S
C1889      C1890   1.368       .  D
C1891      H1896   1.087       .  S
C1891      C1892   1.353       .  D
C1892      C1934   1.482       .  S
C1897      C1898   1.350       .  D
C1898      H1900   1.086   1_545  S
C1901      C1902   1.343   1_565  D
C1902      H1904   1.088       .  S
C1913      H1915   1.087       .  S
C1913      C1914   1.348   1_655  D
C1917      C1918   1.341       .  D
C1918      H1920   1.086       .  S
C1921      C1922   1.352   1_655  D
C1922      H1924   1.086       .  S
C1925      H1927   1.086       .  S
C1925      C1926   1.335   1_655  D
C1929      H1931   1.087       .  S
C1929      C1930   1.344       .  D
C1930      H1932   1.086       .  S
C1933      H1935   1.085       .  S
C1933      C1934   1.339       .  D
C1934      H1936   1.089       .  S
C1937      H1939   1.087       .  S
C1937      C1938   1.338       .  D
C1938      H1940   1.087       .  S
C1941      H1943   1.085       .  S
C1941      C1942   1.355       .  D
C1942      H1944   1.087       .  S
