geometry optimzed in LAMMPS
_audit_creation_date              2020-11-30 
_audit_creation_method            'lammps2cif' 
_symmetry_space_group_name_H-M    'P1' 
_symmetry_Int_Tables_number       1 
_symmetry_cell_setting            triclinic 
loop_ 
_symmetry_equiv_pos_as_xyz 
  x,y,z 
_cell_length_a                    35.10649934 
_cell_length_b                    35.05585345398771 
_cell_length_c                    35.29522605726843 
_cell_angle_alpha                 90.19993282940524 
_cell_angle_beta                  90.10728413588267 
_cell_angle_gamma                 90.03133922091261 
loop_ 
_atom_site_label 
_atom_site_type_symbol 
_atom_site_fract_x 
_atom_site_fract_y 
_atom_site_fract_z 
_atom_site_charge 
C1          C  0.79651500  0.76769092  0.74589931     0.80000
N2          N  0.77166953  0.79723749  0.74336909    -0.78300
C3          C  0.74367234  0.80157660  0.76936036     0.82400
N4          N  0.74078065  0.77626480  0.79831214    -0.78300
C5          C  0.76557822  0.74660684  0.80101949     0.82500
N6          N  0.79361248  0.74256691  0.77488658    -0.80000
C7          C  0.24696671  0.76974355  0.30244620     0.80000
N8          N  0.27641125  0.77221707  0.32738177    -0.78300
C9          C  0.30142597  0.80159317  0.32504616     0.82400
N10         N  0.29720507  0.82790063  0.29754081    -0.78300
C11         C  0.26820187  0.82535273  0.27244707     0.82500
N12         N  0.24326431  0.79601071  0.27460039    -0.80000
C13         C  0.82267760  0.79932111  0.29986736     0.80000
N14         N  0.82375417  0.77434409  0.27045203    -0.78300
C15         C  0.79730156  0.74630793  0.26764483     0.82400
N16         N  0.76970658  0.74335917  0.29417813    -0.78300
C17         C  0.76858764  0.76811358  0.32367805     0.82500
N18         N  0.79490522  0.79632246  0.32637977    -0.80000
C19         C  0.29280485  0.26425742  0.24321970     0.80000
N20         N  0.28937435  0.23717290  0.27024378    -0.78300
C21         C  0.25963488  0.23783065  0.29458606     0.82400
N22         N  0.23328941  0.26597007  0.29206399    -0.78300
C23         C  0.23638964  0.29288285  0.26471276     0.82500
N24         N  0.26637285  0.29221050  0.24055661    -0.80000
C25         C  0.80329899  0.32612588  0.30009382     0.80000
N26         N  0.77438054  0.32996205  0.27476070    -0.78300
C27         C  0.77049861  0.30443568  0.24595451     0.82400
N28         N  0.79500132  0.27457499  0.24319506    -0.78300
C29         C  0.82364513  0.27055016  0.26864313     0.82500
N30         N  0.82756704  0.29626895  0.29707832    -0.80000
C31         C  0.77735522  0.31398735  0.76025086     0.80000
N32         N  0.80533713  0.31453553  0.78683764    -0.78300
C33         C  0.80569976  0.28799494  0.81474068     0.82400
N34         N  0.77804847  0.26105524  0.81609549    -0.78300
C35         C  0.75005450  0.26055443  0.78968448     0.82500
N36         N  0.74979744  0.28696315  0.76174163    -0.80000
C37         C  0.30236615  0.82571156  0.79755115     0.80000
N38         N  0.32894921  0.79780980  0.79478890    -0.78300
C39         C  0.32807181  0.77300264  0.76528578     0.82400
N40         N  0.30032362  0.77590144  0.73873500    -0.78300
C41         C  0.27371186  0.80374526  0.74139086     0.82500
N42         N  0.27459663  0.82848638  0.77097714    -0.80000
O43         O  0.08722716  0.03056101  0.99549527    -0.88600
C44         C  0.98190394  0.03341644  0.95010381     0.87400
Mg45       Mg  0.10812659  0.98265122  0.02469525     1.58100
O46         O  0.99422461  0.08450118  0.03467254    -0.88300
O47         O  0.07928577  0.09117686  0.00707066    -0.75700
C48         C  0.97187753  0.93122880  0.14243663     0.92500
O49         O  0.04017119  0.96170264  0.95834870    -0.75500
O50         O  0.00021107  0.91677756  0.12521369    -0.83000
Mg51       Mg  0.06378659  0.02027735  0.94026794     1.58000
C52         C  0.91619680  0.07953448  0.12063672     0.92400
O53         O  0.08882496  0.07698310  0.91752426    -0.81200
H54         H  0.01982727  0.12612518  0.06409560    -0.06600
C55         C  0.94715644  0.97933155  0.04617162     0.87300
O56         O  0.09352333  0.00933386  0.08210950    -0.75800
O57         O  0.01280693  0.04738639  0.95996405    -0.88500
O58         O  0.91925670  0.08873938  0.08586926    -0.81300
C59         C  0.92967427  0.12917651  0.97041449     0.92500
C60         C  0.07854552  0.11173282  0.91414102     0.92400
Mg61       Mg  0.98409507  0.02026525  0.11200554     1.58000
O62         O  0.95997800  0.96482353  0.13586225    -0.81300
O63         O  0.00783412  0.07882322  0.09487169    -0.75500
O64         O  0.96335316  0.12324168  0.95858662    -0.81300
O65         O  0.11710128  0.98959532  0.91930062    -0.83000
O66         O  0.08552866  0.91840151  0.09552888    -0.81400
C67         C  0.00744570  0.09788100  0.06435159     0.86800
O68         O  0.03426512  0.99341977  0.09241655    -0.88500
O69         O  0.95875346  0.01065367  0.05763056    -0.88600
O70         O  0.96803682  0.94971198  0.04716251    -0.75700
Mg71       Mg  0.01992866  0.10346935  0.98341491     1.58000
O72         O  0.91633044  0.11298758  0.99965345    -0.83000
H73         H  0.12839750  0.06284857  0.01815496    -0.06800
O74         O  0.05335059  0.95571095  0.01887063    -0.88300
H75         H  0.02781948  0.91436803  0.98898542    -0.06600
H76         H  0.06536839  0.02185581  0.13070170    -0.06800
C77         C  0.04030740  0.94257052  0.98892975     0.86800
C78         C  0.09978245  0.06145099  0.00685147     0.87400
C79         C  0.06434527  0.00822221  0.10319085     0.87400
H80         H  0.91884653  0.97726847  0.03421581    -0.06800
O81         O  0.95273460  0.03419547  0.97149519    -0.75800
Mg82       Mg  0.02791871  0.93675006  0.07072886     1.58000
H83         H  0.97986825  0.01935840  0.92285437    -0.06800
C84         C  0.13546110  0.96321016  0.93594487     0.92400
O85         O  0.13235075  0.93327455  0.05610723    -0.83000
C86         C  0.12033511  0.91668548  0.08564652     0.92500
O87         O  0.04914930  0.12452720  0.93088959    -0.83000
Mg88       Mg  0.93838968  0.06072432  0.02973538     1.58200
O89         O  0.13026966  0.95615766  0.97084052    -0.81300
O90         O  0.93228634  0.05006884  0.13394101    -0.83000
C91         C  0.19160688  0.29511758  0.88659609     0.80000
N92         N  0.17002495  0.26318854  0.88811991    -0.78300
C93         C  0.18108054  0.23050728  0.87071825     0.82400
N94         N  0.21422522  0.23007010  0.85075860    -0.78300
C95         C  0.23638994  0.26202082  0.84929570     0.82500
N96         N  0.22493217  0.29447188  0.86727563    -0.80000
C97         C  0.88400104  0.19217842  0.30298829     0.80000
N98         N  0.88715688  0.17027138  0.27150614    -0.78300
C99         C  0.87032201  0.18095704  0.23864196     0.82400
N100        N  0.85000224  0.21389462  0.23727257    -0.78300
C101        C  0.84701719  0.23610490  0.26878490     0.82500
N102        N  0.86396431  0.22511444  0.30158599    -0.80000
C103        C  0.30629206  0.88489411  0.19687762     0.80000
N104        N  0.27633774  0.88710832  0.17288023    -0.78300
C105        C  0.24287822  0.86990477  0.18150879     0.82400
N106        N  0.23943943  0.85075340  0.21470363    -0.78300
C107        C  0.26946171  0.84902476  0.23890616     0.82500
N108        N  0.30288929  0.86590138  0.22979945    -0.80000
O109        O  0.04121393  0.49401968  0.48173848    -0.88600
C110        C  0.03622304  0.44710195  0.58579363     0.87400
Mg111      Mg  0.09017553  0.52274361  0.46231590     1.58100
O112        O  0.98443705  0.53141903  0.57395898    -0.88300
O113        O  0.98041302  0.50491114  0.48890819    -0.75700
C114        C  0.13642536  0.64162015  0.59958691     0.92500
O115        O  0.10874273  0.45565084  0.52933061    -0.75500
O116        O  0.15142256  0.62389760  0.57193253    -0.83000
Mg117      Mg  0.05043864  0.43829141  0.50423542     1.58000
C118        C  0.98692991  0.61761037  0.65257255     0.92400
O119        O  0.99451418  0.41712804  0.47720207    -0.81200
H120        H  0.94302380  0.56054594  0.54800855    -0.06600
C121        C  0.08847604  0.54401316  0.62292879     0.87300
O122        O  0.06322480  0.58068694  0.47625340    -0.75800
O123        O  0.02272581  0.45721779  0.55497565    -0.88500
O124        O  0.97837441  0.58238636  0.64939090    -0.81300
C125        C  0.93874036  0.46594863  0.63592136     0.92500
C126        C  0.95987068  0.41249499  0.48678085     0.92400
Mg127      Mg  0.04769146  0.60998125  0.58556421     1.58000
O128        O  0.10248771  0.63517342  0.61051920    -0.81300
O129        O  0.98989353  0.59202589  0.56072851    -0.75500
O130        O  0.94576952  0.45381134  0.60266243    -0.81300
O131        O  0.08061032  0.41803181  0.45102133    -0.83000
O132        O  0.15204591  0.59504647  0.48701419    -0.81400
C133        C  0.97104296  0.56113180  0.56076790     0.86800
O134        O  0.07593142  0.59035594  0.53613709    -0.88500
O135        O  0.05734101  0.55539723  0.61099827    -0.88600
O136        O  0.11837006  0.54515745  0.60265477    -0.75700
Mg137      Mg  0.96659500  0.47986813  0.54720925     1.58000
O138        O  0.95474933  0.49530836  0.64986383    -0.83000
H139        H  0.00958789  0.51798637  0.44109777    -0.06800
O140        O  0.11486250  0.51677679  0.51753925    -0.88300
H141        H  0.15568495  0.48661018  0.54331790    -0.06600
H142        H  0.04891746  0.62909195  0.50450336    -0.06800
C143        C  0.12778027  0.48656323  0.53029573     0.86800
C144        C  0.01053679  0.50571929  0.46915242     0.87400
C145        C  0.06254968  0.60147709  0.50573088     0.87400
H146        H  0.09012036  0.53188513  0.65101841    -0.06800
O147        O  0.03460539  0.46824929  0.61516543    -0.75800
Mg148      Mg  0.13255990  0.56918902  0.54363833     1.58000
H149        H  0.05053854  0.41986912  0.58760940    -0.06800
C150        C  0.10795366  0.43398869  0.43366740     0.92400
O151        O  0.14087629  0.55384083  0.44030121    -0.83000
C152        C  0.15605375  0.58420834  0.45277382     0.92500
O153        O  0.94643927  0.42692495  0.51700520    -0.83000
Mg154      Mg  0.00721567  0.52637918  0.62982071     1.58200
O155        O  0.11755125  0.46822278  0.44094748    -0.81300
O156        O  0.01614454  0.63157661  0.63656703    -0.83000
C157        C  0.77302633  0.38339044  0.38219803     0.80000
N158        N  0.80588269  0.38533318  0.40228308    -0.78300
C159        C  0.83845339  0.37020515  0.38835388     0.82400
N160        N  0.83799235  0.35216534  0.35430095    -0.78300
C161        C  0.80511376  0.35015217  0.33392687     0.82500
N162        N  0.77270739  0.36599644  0.34782502    -0.80000
C163        C  0.19003489  0.68941572  0.26635745     0.80000
N164        N  0.18739260  0.66742338  0.29774959    -0.78300
C165        C  0.20214532  0.67971442  0.33115604     0.82400
N166        N  0.22067940  0.71354577  0.33287658    -0.78300
C167        C  0.22357093  0.73551426  0.30151810     0.82500
N168        N  0.20792412  0.72362152  0.26828407    -0.80000
C169        C  0.86982572  0.79816957  0.67852670     0.80000
N170        N  0.89190969  0.76665795  0.67598704    -0.78300
C171        C  0.88246640  0.73447583  0.69504013     0.82400
N172        N  0.85090452  0.73414320  0.71732871    -0.78300
C173        C  0.82878509  0.76592585  0.71992381     0.82500
N174        N  0.83858320  0.79788542  0.70077828    -0.80000
O175        O  0.95098585  0.02202380  0.54684362    -0.88600
C176        C  0.04947859  0.96236890  0.55904249     0.87400
Mg177      Mg  0.94081798  0.05695730  0.49835594     1.58100
O178        O  0.04264810  0.04370984  0.61771585    -0.88300
O179        O  0.95451032  0.02725575  0.60876201    -0.75700
C180        C  0.10137514  0.15233359  0.47608125     0.92500
O181        O  0.00430440  0.98390180  0.48207962    -0.75500
O182        O  0.07199239  0.14286378  0.45720785    -0.83000
Mg183      Mg  0.97139613  0.96533605  0.53480702     1.58000
C184        C  0.13462841  0.11561998  0.62442836     0.92400
O185        O  0.93786665  0.93933226  0.58341962    -0.81200
H186        H  0.01518148  0.07372716  0.65745062    -0.06600
C187        C  0.10203205  0.05548596  0.52046649     0.87300
O188        O  0.95839076  0.11080414  0.53125562    -0.75800
O189        O  0.01934601  0.97696609  0.56969879    -0.88500
O190        O  0.12530733  0.08120219  0.63067413    -0.81300
C191        C  0.09486889  0.96448119  0.65679775     0.92500
C192        C  0.94398143  0.92949347  0.61755119     0.92400
Mg193      Mg  0.06887630  0.12388160  0.56119795     1.58000
O194        O  0.10415405  0.14528575  0.51129471    -0.81300
O195        O  0.03575253  0.10582849  0.61431810    -0.75500
O196        O  0.05963634  0.95997132  0.64901181    -0.81300
O197        O  0.92230511  0.95181512  0.49594168    -0.83000
O198        O  0.98455119  0.12694026  0.44337404    -0.81400
C199        C  0.03099697  0.07419029  0.63119850     0.86800
O200        O  0.02054654  0.11365847  0.52614382    -0.88500
O201        O  0.08729844  0.06661722  0.55024939    -0.88600
O202        O  0.08602511  0.06059089  0.48867904    -0.75700
Mg203      Mg  0.00838151  0.99447930  0.62677534     1.58000
O204        O  0.11279232  0.99414206  0.64663591    -0.83000
H205        H  0.91102788  0.04865905  0.57736166    -0.06800
O206        O  0.99812401  0.04585174  0.48062948    -0.88300
H207        H  0.02476754  0.01688175  0.43962435    -0.06600
H208        H  0.99035044  0.15426680  0.55230765    -0.06800
C209        C  0.00925769  0.01580733  0.46604157     0.86800
C210        C  0.93750216  0.03291947  0.57741312     0.87400
C211        C  0.99000636  0.12762487  0.53678606     0.87400
H212        H  0.12856428  0.03988588  0.52165546    -0.06800
O213        O  0.08125283  0.97855902  0.56481924    -0.75800
Mg214      Mg  0.03311947  0.09364174  0.46984829     1.58000
H215        H  0.04865471  0.93575610  0.54348584    -0.06800
C216        C  0.91183427  0.97053578  0.46699832     0.92400
O217        O  0.93002849  0.09467826  0.44755444    -0.83000
C218        C  0.95030247  0.12100987  0.43321714     0.92500
O219        O  0.97133959  0.94327987  0.63683240    -0.83000
Mg220      Mg  0.09923206  0.03210946  0.59767701     1.58200
O221        O  0.91899745  0.00602196  0.46380304    -0.81300
O222        O  0.11932086  0.13547311  0.59855668    -0.83000
C223        C  0.20276870  0.77233012  0.67112298     0.80000
N224        N  0.23374438  0.77281568  0.69400385    -0.78300
C225        C  0.24182916  0.80434748  0.71491713     0.82400
N226        N  0.21828725  0.83500400  0.71366278    -0.78300
C227        C  0.18692639  0.83443555  0.69114396     0.82500
N228        N  0.17948794  0.80305956  0.66976283    -0.80000
C229        C  0.29091131  0.16626244  0.36406675     0.80000
N230        N  0.28984326  0.18926529  0.33334901    -0.78300
C231        C  0.25877184  0.21102853  0.32605040     0.82400
N232        N  0.22846411  0.21006625  0.34977145    -0.78300
C233        C  0.22882134  0.18690468  0.38044201     0.82500
N234        N  0.26017332  0.16533096  0.38737566    -0.80000
C235        C  0.89526462  0.86946894  0.27136052     0.80000
N236        N  0.89749337  0.89151674  0.30289150    -0.78300
C237        C  0.87560545  0.88384621  0.33359511     0.82400
N238        N  0.85179173  0.85335537  0.33277899    -0.78300
C239        C  0.84958824  0.83103301  0.30135841     0.82500
N240        N  0.87102256  0.83939583  0.27052388    -0.80000
O241        O  0.48748888  0.48077487  0.03730862    -0.88600
C242        C  0.43813815  0.58552515  0.03271908     0.87400
Mg243      Mg  0.51911226  0.46225875  0.08473991     1.58100
O244        O  0.52241677  0.57455083  0.98114688    -0.88300
O245        O  0.49698656  0.48848151  0.97672872    -0.75700
C246        C  0.63004212  0.60725997  0.13126143     0.92500
O247        O  0.44937817  0.52743347  0.10595932    -0.75500
O248        O  0.61338262  0.57948983  0.14730796    -0.83000
Mg249      Mg  0.43146361  0.50266125  0.04824300     1.58000
C250        C  0.60707703  0.65501805  0.98230422     0.92400
O251        O  0.40846197  0.47628190  0.99248455    -0.81200
H252        H  0.55161035  0.54899844  0.93960084    -0.06600
C253        C  0.53171097  0.62469117  0.08332900     0.87300
O254        O  0.57528118  0.47926733  0.05707755    -0.75800
O255        O  0.44925982  0.55435704  0.02033617    -0.88500
O256        O  0.57213757  0.65101352  0.97320681    -0.81300
C257        C  0.45768862  0.63370107  0.93285096     0.92500
C258        C  0.40343453  0.48673707  0.95823507     0.92400
Mg259      Mg  0.59991829  0.58924462  0.04321897     1.58000
O260        O  0.62352324  0.61543367  0.09682055    -0.81300
O261        O  0.58329832  0.56312032  0.98574746    -0.75500
O262        O  0.44378307  0.60230566  0.94426106    -0.81300
O263        O  0.41314325  0.44860206  0.07989578    -0.83000
O264        O  0.59048863  0.49133230  0.14742070    -0.81400
C265        C  0.55221614  0.56201314  0.96741808     0.86800
O266        O  0.58228172  0.53952139  0.07142607    -0.88500
O267        O  0.54470988  0.61372509  0.05257115    -0.88600
O268        O  0.53337400  0.60419186  0.11297055    -0.75700
Mg269      Mg  0.47116590  0.54705380  0.96419135     1.58000
O270        O  0.48624494  0.64914244  0.94873586    -0.83000
H271        H  0.51076499  0.44008889  0.00496485    -0.06800
O272        O  0.51080797  0.51714382  0.11054881    -0.88300
H273        H  0.48072904  0.54089601  0.15250467    -0.06600
H274        H  0.62225753  0.51001922  0.04372710    -0.06800
C275        C  0.48050979  0.52856463  0.12437579     0.86800
C276        C  0.49845482  0.46831534  0.00643668     0.87400
C277        C  0.59473939  0.50971110  0.05743412     0.87400
H278        H  0.51756138  0.65204057  0.08478748    -0.06800
O279        O  0.45804786  0.61578203  0.02952466    -0.75800
Mg280      Mg  0.56114975  0.54664709  0.12791458     1.58000
H281        H  0.41095357  0.58703479  0.04700732    -0.06800
C282        C  0.43130933  0.43119052  0.10592249     0.92400
O283        O  0.55377048  0.44137049  0.13387059    -0.83000
C284        C  0.58290408  0.45588334  0.14980774     0.92500
O285        O  0.41846915  0.51689002  0.94525590    -0.83000
Mg286      Mg  0.51612403  0.63125532  0.00216906     1.58200
O287        O  0.46640900  0.43782110  0.11206754    -0.81300
O288        O  0.62036565  0.64062780  0.01247099    -0.83000
C289        C  0.38376433  0.37769819  0.77299024     0.80000
N290        N  0.38373733  0.39945369  0.80481790    -0.78300
C291        C  0.36640998  0.38699445  0.83679268     0.82400
N292        N  0.34801370  0.35300805  0.83655698    -0.78300
C293        C  0.34773442  0.33116263  0.80473841     0.82500
N294        N  0.36578435  0.34346810  0.77300344    -0.80000
C295        C  0.69466397  0.27322964  0.18072431     0.80000
N296        N  0.72678141  0.27367923  0.20199717    -0.78300
C297        C  0.73725312  0.30584502  0.22092609     0.82400
N298        N  0.71520554  0.33775751  0.21877148    -0.78300
C299        C  0.68294143  0.33723447  0.19739837     0.82500
N300        N  0.67314524  0.30507764  0.17842119    -0.80000
C301        C  0.79416410  0.67747836  0.87479169     0.80000
N302        N  0.76185467  0.67564296  0.89559462    -0.78300
C303        C  0.73059023  0.69605230  0.88581230     0.82400
N304        N  0.73154099  0.71857187  0.85464458    -0.78300
C305        C  0.76383034  0.72070454  0.83351326     0.82500
N306        N  0.79522856  0.70038878  0.84383627    -0.80000
O307        O  0.04173560  0.61393290  0.04597676    -0.88600
C308        C  0.05764683  0.51639599  0.10528992     0.87400
Mg309      Mg  0.99113958  0.62166753  0.01265420     1.58100
O310        O  0.11271446  0.52160101  0.02195864    -0.88300
O311        O  0.10355795  0.61055397  0.03686131    -0.75700
C312        C  0.96590245  0.45648489  0.92368853     0.92500
O313        O  0.97919021  0.56073003  0.08714294    -0.75500
O314        O  0.94623514  0.48543187  0.93323416    -0.83000
Mg315      Mg  0.03269033  0.59463498  0.10323721     1.58000
C316        C  0.11894655  0.42764151  0.95173197     0.92400
O317        O  0.08338193  0.62880176  0.12849038    -0.81200
H318        H  0.15061623  0.54916689  0.98985286    -0.06600
C319        C  0.01601947  0.46036332  0.01685932     0.87300
O320        O  0.02206541  0.60273590  0.95852868    -0.75800
O321        O  0.06733010  0.54661213  0.09017789    -0.88500
O322        O  0.12694123  0.43720414  0.98568051    -0.81300
C323        C  0.15388363  0.47229410  0.10239908     0.92500
C324        C  0.11836593  0.62191218  0.13557550     0.92400
Mg325      Mg  0.05243657  0.49221332  0.94613871     1.58000
O326        O  0.00178485  0.45554742  0.92860079    -0.81300
O327        O  0.10602856  0.52702259  0.96040650    -0.75500
O328        O  0.14584047  0.50759565  0.10465043    -0.81300
O329        O  0.99297639  0.64345388  0.11710347    -0.83000
O330        O  0.93100869  0.57492736  0.94691104    -0.81400
C331        C  0.12452055  0.53281329  0.99089745     0.86800
O332        O  0.01656482  0.54032275  0.95655602    -0.88500
O333        O  0.04523663  0.47471245  0.00361769    -0.88600
O334        O  0.98369042  0.47603970  0.01306451    -0.75700
Mg335      Mg  0.12349121  0.55746516  0.06954490     1.58000
O336        O  0.14617936  0.45301377  0.07280829    -0.83000
H337        H  0.07045899  0.65367401  0.01721191    -0.06800
O338        O  0.97449686  0.56434917  0.02553265    -0.88300
H339        H  0.93528702  0.53811811  0.05712863    -0.06600
H340        H  0.04108889  0.57005433  0.91494634    -0.06800
C341        C  0.96161220  0.55411968  0.05640137     0.86800
C342        C  0.07166874  0.62741819  0.03315396     0.87400
C343        C  0.02664686  0.57078324  0.94196754     0.87400
H344        H  0.01825945  0.43444620  0.03323269    -0.06800
O345        O  0.06375675  0.48432838  0.08964767    -0.75800
Mg346      Mg  0.96118742  0.52734549  0.97980307     1.58000
H347        H  0.04279576  0.51734045  0.13209668    -0.06800
C348        C  0.96239795  0.65166286  0.09951106     0.92400
O349        O  0.93873033  0.63112778  0.97571611    -0.83000
C350        C  0.92277933  0.61012304  0.95078363     0.92500
O351        O  0.13617379  0.59527041  0.11883767    -0.83000
Mg352      Mg  0.09504714  0.46457112  0.03585358     1.58200
O353        O  0.95816050  0.64352581  0.06448138    -0.81300
O354        O  0.09081689  0.44213250  0.93415126    -0.83000
C355        C  0.76122973  0.68421782  0.19153096     0.80000
N356        N  0.79282568  0.67979363  0.16984258    -0.78300
C357        C  0.82632621  0.69608077  0.18046189     0.82400
N358        N  0.82777591  0.71724968  0.21268577    -0.78300
C359        C  0.79624967  0.72169889  0.23435390     0.82500
N360        N  0.76304272  0.70490609  0.22391007    -0.80000
C361        C  0.17344639  0.36948694  0.29801069     0.80000
N362        N  0.19333346  0.33643368  0.29695694    -0.78300
C363        C  0.21073602  0.32543738  0.26441743     0.82400
N364        N  0.20824468  0.34752655  0.23300554    -0.78300
C365        C  0.18764092  0.38019995  0.23348738     0.82500
N366        N  0.17051170  0.39094566  0.26625987    -0.80000
C367        C  0.86879682  0.25725024  0.89215935     0.80000
N368        N  0.84232645  0.25660026  0.86422565    -0.78300
C369        C  0.83535112  0.28847185  0.84367932     0.82400
N370        N  0.85520584  0.32091785  0.85081744    -0.78300
C371        C  0.88162340  0.32186713  0.87890997     0.82500
N372        N  0.88834475  0.28983744  0.89939483    -0.80000
O373        O  0.61283939  0.05116849  0.04204655    -0.88600
C374        C  0.51406436  0.10797646  0.05868126     0.87400
Mg375      Mg  0.62113131  0.01568950  0.99374259     1.58100
O376        O  0.52575245  0.02669702  0.11586823    -0.88300
O377        O  0.61314232  0.04502336  0.10387842    -0.75700
C378        C  0.46176007  0.91593117  0.97632939     0.92500
O379        O  0.55533177  0.08683469  0.97980943    -0.75500
O380        O  0.49052291  0.92612093  0.95702120    -0.83000
Mg381      Mg  0.59044700  0.10720481  0.03066402     1.58000
C382        C  0.43554829  0.95331034  0.12819610     0.92400
O383        O  0.62504448  0.13544073  0.07773336    -0.81200
H384        H  0.55520942  0.99698205  0.15431068    -0.06600
C385        C  0.46101347  0.01321141  0.02181686     0.87300
O386        O  0.60586098  0.96206715  0.02776856    -0.75800
O387        O  0.54514302  0.09442182  0.06802906    -0.88500
O388        O  0.44566622  0.98761772  0.13410428    -0.81300
C389        C  0.47466056  0.10585373  0.15789795     0.92500
C390        C  0.62120115  0.14399158  0.11259020     0.92400
Mg391      Mg  0.49677097  0.94573225  0.06059546     1.58000
O392        O  0.45946928  0.92334899  0.01161092    -0.81300
O393        O  0.53224147  0.96449921  0.11234736    -0.75500
O394        O  0.50935849  0.11034188  0.14852479    -0.81300
O395        O  0.63686019  0.12161348  0.98883175    -0.83000
O396        O  0.57701093  0.94449989  0.93904248    -0.81400
C397        C  0.53807239  0.99631830  0.12883080     0.86800
O398        O  0.54368663  0.95635415  0.02376860    -0.88500
O399        O  0.47736764  0.00264725  0.05093221    -0.88600
O400        O  0.47559207  0.00805792  0.98937530    -0.75700
Mg401      Mg  0.55970774  0.07648060  0.12431920     1.58000
O402        O  0.45661632  0.07566266  0.14909730    -0.83000
H403        H  0.65552466  0.02579750  0.06980505    -0.06800
O404        O  0.56279089  0.02500705  0.97808580    -0.88300
H405        H  0.53322920  0.05302646  0.93854120    -0.06600
H406        H  0.57624908  0.91769198  0.04986191    -0.06800
C407        C  0.55018346  0.05467555  0.96410292     0.86800
C408        C  0.62855774  0.04056505  0.07161281     0.87400
C409        C  0.57509136  0.94398500  0.03398029     0.87400
H410        H  0.43420529  0.02821781  0.02411800    -0.06800
O411        O  0.48305677  0.09082349  0.06559246    -0.75800
Mg412      Mg  0.52855217  0.97632193  0.96816683     1.58000
H413        H  0.51336292  0.13449153  0.04313366    -0.06800
C414        C  0.64630377  0.10230264  0.95977486     0.92400
O415        O  0.63134843  0.97711115  0.94364388    -0.83000
C416        C  0.61145040  0.95031229  0.92951172     0.92500
O417        O  0.59680526  0.12797209  0.13380099    -0.83000
Mg418      Mg  0.46790944  0.03724250  0.09929296     1.58200
O419        O  0.64000374  0.06653494  0.95771582    -0.81300
O420        O  0.44818339  0.93406046  0.10033874    -0.83000
C421        C  0.67353829  0.19579794  0.75929251     0.80000
N422        N  0.70040038  0.22342619  0.75894620    -0.78300
C423        C  0.72073715  0.23116947  0.79068623     0.82400
N424        N  0.71456506  0.21077338  0.82274011    -0.78300
C425        C  0.68772407  0.18284957  0.82322108     0.82500
N426        N  0.66716469  0.17565374  0.79135030    -0.80000
C427        C  0.37229747  0.29991550  0.18517287     0.80000
N428        N  0.39441335  0.26822871  0.18314619    -0.78300
C429        C  0.38312440  0.23514155  0.19943233     0.82400
N430        N  0.34968244  0.23412245  0.21837669    -0.78300
C431        C  0.32717329  0.26543452  0.22023198     0.82500
N432        N  0.33835046  0.29838384  0.20343281    -0.80000
C433        C  0.26701991  0.88735887  0.87438068     0.80000
N434        N  0.26859181  0.86753789  0.84140786    -0.78300
C435        C  0.30145121  0.85000182  0.83109940     0.82400
N436        N  0.33270952  0.85269394  0.85357115    -0.78300
C437        C  0.33162200  0.87331758  0.88609619     0.82500
N438        N  0.29848946  0.89018466  0.89656293    -0.80000
O439        O  0.54601369  0.51970973  0.45421559    -0.88600
C440        C  0.60394976  0.51257926  0.55339646     0.87400
Mg441      Mg  0.51054515  0.56795762  0.44339576     1.58100
O442        O  0.52453762  0.45084804  0.54865234    -0.88300
O443        O  0.54061463  0.45761799  0.46042240    -0.75700
C444        C  0.41402930  0.59390890  0.60230922     0.92500
O445        O  0.58259074  0.58749520  0.50549999    -0.75500
O446        O  0.42282713  0.61236203  0.57262549    -0.83000
Mg447      Mg  0.60238050  0.53347206  0.47443548     1.58000
C448        C  0.45164095  0.44503863  0.64009204     0.92400
O449        O  0.63045989  0.48337233  0.44285544    -0.81200
H450        H  0.49567556  0.40937985  0.52215953    -0.06600
C451        C  0.51043922  0.54994651  0.60480949     0.87300
O452        O  0.45697546  0.53475864  0.46113176    -0.75800
O453        O  0.59034688  0.50026490  0.52345614    -0.88500
O454        O  0.48660905  0.43865916  0.63254038    -0.81300
C455        C  0.60677236  0.41617139  0.60086658     0.92500
C456        C  0.64018592  0.44952135  0.45154740     0.92400
Mg457      Mg  0.44348846  0.50728189  0.57190498     1.58000
O458        O  0.42137683  0.55851678  0.60540174    -0.81300
O459        O  0.46257041  0.45308977  0.54058130    -0.75500
O460        O  0.60932714  0.42313492  0.56557096    -0.81300
O461        O  0.61542501  0.57124828  0.42433705    -0.83000
O462        O  0.43989368  0.62571836  0.48475203    -0.81400
C463        C  0.49450771  0.43636409  0.53703859     0.86800
O464        O  0.45309546  0.54164883  0.52282536    -0.88500
O465        O  0.50000549  0.51918743  0.59116111    -0.88600
O466        O  0.50489808  0.58121139  0.58772874    -0.75700
Mg467      Mg  0.57378387  0.44220422  0.51458766     1.58000
O468        O  0.57703873  0.42510491  0.61944536    -0.83000
H469        H  0.51936233  0.48718290  0.41577155    -0.06800
O470        O  0.52067211  0.58721127  0.50018961    -0.88300
H471        H  0.54877115  0.62996536  0.52538929    -0.06600
H472        H  0.41346576  0.51386957  0.49269484    -0.06800
C473        C  0.55036542  0.60293780  0.51062464     0.86800
C474        C  0.53511194  0.48834067  0.44210629     0.87400
C475        C  0.43981021  0.52985660  0.49244541     0.87400
H476        H  0.52579776  0.55009718  0.63139146    -0.06800
O477        O  0.58783747  0.50686464  0.58502364    -0.75800
Mg478      Mg  0.47241093  0.59897621  0.53430140     1.58000
H479        H  0.62971539  0.52946686  0.55252797    -0.06800
C480        C  0.59632934  0.60034858  0.41425008     0.92400
O481        O  0.47330776  0.61864297  0.43159870    -0.83000
C482        C  0.44732031  0.63493815  0.45068430     0.92500
O483        O  0.62493051  0.43170654  0.47881897    -0.83000
Mg484      Mg  0.53579779  0.47254524  0.60471872     1.58200
O485        O  0.56097974  0.60307992  0.42166722    -0.81300
O486        O  0.43274088  0.47069638  0.62294583    -0.83000
C487        C  0.69568642  0.79640043  0.39323638     0.80000
N488        N  0.72685846  0.79741171  0.37062283    -0.78300
C489        C  0.73711538  0.76608023  0.35039376     0.82400
N490        N  0.71607238  0.73369043  0.35255255    -0.78300
C491        C  0.68513164  0.73223464  0.37534063     0.82500
N492        N  0.67498986  0.76373273  0.39528656    -0.80000
C493        C  0.39486390  0.69830283  0.79621645     0.80000
N494        N  0.37297294  0.73014859  0.79618779    -0.78300
C495        C  0.35414567  0.74070882  0.76426429     0.82400
N496        N  0.35673814  0.71908220  0.73241314    -0.78300
C497        C  0.37882795  0.68742301  0.73201687     0.82500
N498        N  0.39757635  0.67729462  0.76402559    -0.80000
C499        C  0.80821588  0.38889711  0.69398841     0.80000
N500        N  0.80861952  0.36278255  0.72220246    -0.78300
C501        C  0.77690968  0.34214470  0.72986246     0.82400
N502        N  0.74486276  0.34734701  0.70892701    -0.78300
C503        C  0.74433315  0.37317148  0.68037589     0.82500
N504        N  0.77608614  0.39403724  0.67315696    -0.80000
O505        O  0.53177170  0.07468459  0.57946859    -0.88600
C506        C  0.52523939  0.12626986  0.47648387     0.87400
Mg507      Mg  0.58060081  0.04598357  0.60035204     1.58100
O508        O  0.47885308  0.03799522  0.48402465    -0.88300
O509        O  0.47181853  0.06120588  0.57029968    -0.75700
C510        C  0.63273034  0.93206476  0.46209017     0.92500
O511        O  0.59834279  0.11453415  0.53390848    -0.75500
O512        O  0.64707177  0.94747741  0.49146238    -0.83000
Mg513      Mg  0.53932565  0.13108248  0.55790310     1.58000
C514        C  0.48906138  0.95652031  0.40257026     0.92400
O515        O  0.48189319  0.15241528  0.58315416    -0.81200
H516        H  0.43744789  0.00576920  0.50598928    -0.06600
C517        C  0.58602831  0.03259802  0.44016771     0.87300
O518        O  0.55506627  0.98819505  0.58325342    -0.75800
O519        O  0.51238021  0.11319108  0.50635960    -0.88500
O520        O  0.47877286  0.99103430  0.40684408    -0.81300
C521        C  0.42816439  0.09994004  0.42407923     0.92500
C522        C  0.44693100  0.15474947  0.57324811     0.92400
Mg523      Mg  0.54610079  0.96410054  0.47175079     1.58000
O524        O  0.60236798  0.94451560  0.44699090    -0.81300
O525        O  0.48635550  0.97712423  0.49458357    -0.75500
O526        O  0.43362249  0.11142034  0.45790804    -0.81300
O527        O  0.56891512  0.15068150  0.61170668    -0.83000
O528        O  0.64505575  0.97433603  0.57724087    -0.81400
C529        C  0.46611206  0.00708025  0.49490231     0.86800
O530        O  0.57085407  0.98165247  0.52381347    -0.88500
O531        O  0.55443320  0.02058067  0.45013200    -0.88600
O532        O  0.61539584  0.02922833  0.46119358    -0.75700
Mg533      Mg  0.45748861  0.08671660  0.51259510     1.58000
O534        O  0.44931560  0.07529374  0.40813872    -0.83000
H535        H  0.50018257  0.04880406  0.61879416    -0.06800
O536        O  0.60850327  0.05397369  0.54681848    -0.88300
H537        H  0.64719096  0.08648532  0.52074834    -0.06600
H538        H  0.54300386  0.94094190  0.55206968    -0.06800
C539        C  0.61934065  0.08487823  0.53368500     0.86800
C540        C  0.50132415  0.06156898  0.59097519     0.87400
C541        C  0.55617660  0.96882135  0.55286848     0.87400
H542        H  0.58872013  0.04658518  0.41303457    -0.06800
O543        O  0.52613289  0.10663808  0.44614872    -0.75800
Mg544      Mg  0.62778430  0.00238231  0.52002348     1.58000
H545        H  0.53703871  0.15476802  0.47644815    -0.06800
C546        C  0.59607075  0.13513795  0.62986990     0.92400
O547        O  0.63044600  0.01388002  0.62426106    -0.83000
C548        C  0.64675814  0.98387574  0.61211775     0.92500
O549        O  0.43435511  0.13721206  0.54423349    -0.83000
Mg550      Mg  0.50344320  0.04741243  0.42921842     1.58200
O551        O  0.60595559  0.10067583  0.62424947    -0.81300
O552        O  0.51900021  0.94374216  0.41811170    -0.83000
C553        C  0.38392873  0.76780653  0.37984644     0.80000
N554        N  0.34904373  0.76891671  0.36339918    -0.78300
C555        C  0.33676935  0.80145423  0.34671574     0.82400
N556        N  0.35970288  0.83262360  0.34595727    -0.78300
C557        C  0.39473896  0.83151068  0.36203654     0.82500
N558        N  0.40661820  0.79910303  0.37931092    -0.80000
C559        C  0.26649848  0.18527866  0.68977639     0.80000
N560        N  0.26858744  0.20395956  0.72323607    -0.78300
C561        C  0.30121811  0.22184151  0.73360398     0.82400
N562        N  0.33201721  0.22126133  0.71004526    -0.78300
C563        C  0.33005806  0.20212511  0.67642580     0.82500
N564        N  0.29718408  0.18426683  0.66671483    -0.80000
C565        C  0.67829566  0.87806522  0.79987633     0.80000
N566        N  0.70016141  0.84623222  0.80000108    -0.78300
C567        C  0.71892576  0.83532057  0.76811565     0.82400
N568        N  0.71626861  0.85689864  0.73606455    -0.78300
C569        C  0.69469490  0.88917421  0.73611473     0.82500
N570        N  0.67579202  0.89922826  0.76801979    -0.80000
C571        C  0.27001429  0.26348739  0.82457405     0.80000
N572        N  0.29540522  0.29242146  0.82856496    -0.78300
C573        C  0.32391400  0.29706468  0.80305238     0.82400
N574        N  0.32662163  0.27311862  0.77295799    -0.78300
C575        C  0.30137986  0.24420919  0.76864865     0.82500
N576        N  0.27287828  0.23962526  0.79433276    -0.80000
C577        C  0.66665861  0.95933455  0.64036666    -0.00400
C578        C  0.67687672  0.97598787  0.67520360    -0.12300
C579        C  0.68868063  0.95378561  0.70579345     0.01800
C580        C  0.69069341  0.91368023  0.70213483    -0.00500
C581        C  0.68397879  0.89710742  0.66645464    -0.12200
C582        C  0.67195959  0.91948545  0.63561137    -0.00700
H583        H  0.67426129  0.00657901  0.67916033     0.14700
H584        H  0.68576482  0.86637953  0.66325838     0.14700
C585        C  0.66301133  0.90032325  0.60042736     0.36300
C586        C  0.69777714  0.97306225  0.74094377     0.36200
N587        N  0.65594174  0.88487761  0.57223855    -0.44000
N588        N  0.70491750  0.98856378  0.76908083    -0.44000
C589        C  0.41931975  0.17596468  0.59751294    -0.00400
C590        C  0.42867457  0.18338596  0.63566181    -0.12300
C591        C  0.40085083  0.19513619  0.66178465     0.01800
C592        C  0.36271423  0.19951927  0.64979617    -0.00500
C593        C  0.35436623  0.19615446  0.61098428    -0.12200
C594        C  0.38198367  0.18464630  0.58490874     0.01700
H595        H  0.45719661  0.17750703  0.64577893     0.14700
H596        H  0.32545714  0.20082555  0.60110313     0.14700
C597        C  0.37036223  0.18061534  0.54576730     0.36300
C598        C  0.41176569  0.19950939  0.70099713     0.36200
N599        N  0.36082780  0.17723669  0.51451863    -0.44000
N600        N  0.42066932  0.20310952  0.73239390    -0.44000
C601        C  0.41888897  0.86589585  0.36284883    -0.00400
C602        C  0.40199683  0.90115469  0.37130334    -0.12300
C603        C  0.42439232  0.93277866  0.38091622     0.01800
C604        C  0.46455004  0.92914407  0.38183867    -0.00500
C605        C  0.48121764  0.89517695  0.36860823    -0.12200
C606        C  0.45879196  0.86365464  0.35916434     0.01700
H607        H  0.37123481  0.90327386  0.37327424     0.14700
H608        H  0.51198905  0.89244299  0.36778186     0.14700
C609        C  0.47746169  0.82919090  0.34650482     0.36300
C610        C  0.40514014  0.96711638  0.39307624     0.36200
N611        N  0.49246410  0.80166129  0.33621697    -0.44000
N612        N  0.38964201  0.99456258  0.40285950    -0.44000
C613        C  0.68153294  0.83131084  0.41241536    -0.00400
C614        C  0.64226146  0.83377567  0.41932791    -0.12300
C615        C  0.62630941  0.86617672  0.43566777     0.01800
C616        C  0.64976337  0.89736389  0.44571169    -0.00500
C617        C  0.68919976  0.89484399  0.44001699    -0.12200
C618        C  0.70526430  0.86226985  0.42315246     0.01700
H619        H  0.62353377  0.81043811  0.41140823     0.14700
H620        H  0.70733481  0.91858002  0.44810877     0.14700
C621        C  0.74602885  0.86133742  0.41788083     0.36300
C622        C  0.58574759  0.86598349  0.44283330     0.36200
N623        N  0.77870748  0.86075588  0.41364320    -0.44000
N624        N  0.55330027  0.86558445  0.44856329    -0.44000
C625        C  0.39798604  0.61501837  0.63516547    -0.00400
C626        C  0.38491007  0.65256050  0.62976309    -0.12300
C627        C  0.37726860  0.67660543  0.66060325     0.01800
C628        C  0.38178478  0.66280767  0.69792763    -0.00500
C629        C  0.39201116  0.62451398  0.70321335    -0.12200
C630        C  0.40072590  0.60085744  0.67263731     0.01700
H631        H  0.38266969  0.66398571  0.60132593     0.14700
H632        H  0.39505138  0.61327773  0.73166797     0.14700
C633        C  0.41610371  0.56373651  0.68150110     0.36300
C634        C  0.36782662  0.71589856  0.65283750     0.36200
N635        N  0.42910215  0.53446539  0.68925359    -0.44000
N636        N  0.36046681  0.74742374  0.64652432    -0.44000
C637        C  0.42717182  0.66759594  0.43364279    -0.00400
C638        C  0.41848834  0.66683784  0.39478104    -0.12300
C639        C  0.40353530  0.69907164  0.37680803     0.01800
C640        C  0.39746910  0.73273896  0.39783315    -0.00500
C641        C  0.40603898  0.73363543  0.43651747    -0.12200
C642        C  0.42066131  0.70144846  0.45462905     0.01700
H643        H  0.42415707  0.64129805  0.37830346     0.14700
H644        H  0.40180855  0.75979693  0.45248743     0.14700
C645        C  0.43122904  0.70497552  0.49407790     0.36300
C646        C  0.39682844  0.69776694  0.33643704     0.36200
N647        N  0.43981770  0.70790812  0.52562980    -0.44000
N648        N  0.39164040  0.69693251  0.30405415    -0.44000
C649        C  0.61658002  0.63293268  0.39624747    -0.00400
C650        C  0.65545022  0.62874168  0.38737388    -0.12300
C651        C  0.67809381  0.66030755  0.37838099     0.01800
C652        C  0.66190372  0.69716034  0.37834323    -0.00500
C653        C  0.62256416  0.70102558  0.38390857    -0.12200
C654        C  0.59975533  0.66952207  0.39238376     0.01700
H655        H  0.66881660  0.60092914  0.38926443     0.14700
H656        H  0.60964419  0.72911333  0.38263763     0.14700
C657        C  0.55965616  0.67652058  0.39840609     0.36300
C658        C  0.71826056  0.65415295  0.37206611     0.36200
N659        N  0.52759727  0.68262688  0.40301582    -0.44000
N660        N  0.75042549  0.64913119  0.36694566    -0.44000
C661        C  0.70890384  0.37973002  0.65853755    -0.00400
C662        C  0.67387702  0.37869538  0.67760361    -0.12300
C663        C  0.63988159  0.38851189  0.65922340     0.01800
C664        C  0.64048845  0.39962519  0.62066318    -0.00500
C665        C  0.67541724  0.39806638  0.60106256    -0.12200
C666        C  0.70932062  0.38827025  0.61950987     0.01700
H667        H  0.67317084  0.37147465  0.70745733     0.14700
H668        H  0.67666552  0.40563067  0.57132200     0.14700
C669        C  0.74393668  0.38652371  0.59746499     0.36300
C670        C  0.60517209  0.38732763  0.68106997     0.36200
N671        N  0.77158310  0.38494699  0.57970993    -0.44000
N672        N  0.57744292  0.38634098  0.69872268    -0.44000
C673        C  0.65478369  0.18451866  0.72397402    -0.00400
C674        C  0.61600548  0.19223263  0.71901854    -0.12300
C675        C  0.59661310  0.17863255  0.68702748     0.01800
C676        C  0.61625237  0.15640876  0.65987461    -0.00500
C677        C  0.65547087  0.14998876  0.66442621    -0.12200
C678        C  0.67484557  0.16400460  0.69610098     0.01700
H679        H  0.60070307  0.20804038  0.74064026     0.14700
H680        H  0.67074728  0.13286549  0.64378898     0.14700
C681        C  0.71477472  0.15507785  0.70059247     0.36300
C682        C  0.55618644  0.18555239  0.68431978     0.36200
N683        N  0.74672760  0.14791481  0.70438465    -0.44000
N684        N  0.52378097  0.19120633  0.68237546    -0.44000
C685        C  0.42925978  0.89770653  0.95607995    -0.00400
C686        C  0.43422287  0.88768619  0.91775722    -0.12300
C687        C  0.40322611  0.87845584  0.89460197     0.01800
C688        C  0.36607374  0.87809075  0.90995305    -0.00500
C689        C  0.36136759  0.88515195  0.94885328    -0.12200
C690        C  0.39229266  0.89501040  0.97193960     0.01700
H691        H  0.46229010  0.88914593  0.90504691     0.14700
H692        H  0.33307712  0.88426232  0.96114716     0.14700
C693        C  0.38435906  0.90422984  0.01107333     0.36300
C694        C  0.41044036  0.87272672  0.85469228     0.36200
N695        N  0.37765457  0.91165835  0.04233822    -0.44000
N696        N  0.41638996  0.86823504  0.82274191    -0.44000
C697        C  0.62756924  0.92705332  0.89874998    -0.00400
C698        C  0.60604169  0.92297938  0.86550297    -0.12300
C699        C  0.62164382  0.90588401  0.83333673     0.01800
C700        C  0.65914382  0.89144505  0.83453336    -0.00500
C701        C  0.67988437  0.89336373  0.86854848    -0.12200
C702        C  0.66457450  0.91155151  0.90048179     0.01700
H703        H  0.57754464  0.93487334  0.86406484     0.14700
H704        H  0.70872562  0.88233629  0.86962302     0.14700
C705        C  0.68724856  0.91408295  0.93456989     0.36300
C706        C  0.59876574  0.90410442  0.79930205     0.36200
N707        N  0.70532642  0.91613763  0.96195465    -0.44000
N708        N  0.58052952  0.90286877  0.77197573    -0.44000
C709        C  0.68083511  0.16060068  0.85820559    -0.00400
C710        C  0.68639921  0.17825705  0.89360068    -0.12300
C711        C  0.67717276  0.15947655  0.92736182     0.01800
C712        C  0.66225119  0.12196118  0.92608420    -0.00500
C713        C  0.65900017  0.10360785  0.89073146    -0.12200
C714        C  0.66797641  0.12240013  0.85709074     0.01700
H715        H  0.69687270  0.20734709  0.89492399     0.14700
H716        H  0.64802090  0.07472171  0.88904108     0.14700
C717        C  0.66386305  0.10142510  0.82199303     0.36300
C718        C  0.68323755  0.17961199  0.96264047     0.36200
N719        N  0.66047209  0.08455284  0.79394049    -0.44000
N720        N  0.68815781  0.19585292  0.99083751    -0.44000
C721        C  0.40688785  0.20053545  0.19558079    -0.00400
C722        C  0.44647026  0.20487006  0.19229129    -0.12300
C723        C  0.46988661  0.17392120  0.18322163     0.01800
C724        C  0.45350987  0.13754336  0.17655265    -0.00500
C725        C  0.41426495  0.13277891  0.18312109    -0.12200
C726        C  0.39094826  0.16364879  0.19250142     0.01700
H727        H  0.45915565  0.23287278  0.19583526     0.14700
H728        H  0.40109806  0.10517762  0.17888389     0.14700
C729        C  0.35050384  0.15674955  0.19589460     0.36300
C730        C  0.51025779  0.18110624  0.17986134     0.36200
N731        N  0.31813837  0.15110402  0.19863369    -0.44000
N732        N  0.54256822  0.18713779  0.17732292    -0.44000
C733        C  0.94629027  0.42217302  0.90858020    -0.00400
C734        C  0.90999041  0.42609438  0.89221988    -0.12300
C735        C  0.88857055  0.39408724  0.88153989     0.01800
C736        C  0.90352095  0.35706515  0.88720491    -0.00500
C737        C  0.94012772  0.35322538  0.90271785    -0.12200
C738        C  0.96147418  0.38506200  0.91348974     0.01700
H739        H  0.89785485  0.45429252  0.88854409     0.14700
H740        H  0.95204122  0.32502656  0.90709801     0.14700
C741        C  0.99779512  0.37819747  0.93160331     0.36300
C742        C  0.85065765  0.40029229  0.86685474     0.36200
N743        N  0.02676560  0.37249718  0.94622899    -0.44000
N744        N  0.82027388  0.40535438  0.85512807    -0.44000
C745        C  0.86160088  0.68896062  0.15867162    -0.00400
C746        C  0.89604126  0.68518938  0.17858209    -0.12300
C747        C  0.92974530  0.67488667  0.16007492     0.01800
C748        C  0.92955797  0.66858687  0.12035106    -0.00500
C749        C  0.89536305  0.67463940  0.10030055    -0.12200
C750        C  0.86164038  0.68438713  0.11895726     0.01700
H751        H  0.89638761  0.68878017  0.20912653     0.14700
H752        H  0.89443213  0.67050340  0.06984961     0.14700
C753        C  0.82770295  0.68957841  0.09637902     0.36300
C754        C  0.96334796  0.66972729  0.18318659     0.36200
N755        N  0.80075267  0.69355911  0.07789097    -0.44000
N756        N  0.99006825  0.66553706  0.20197723    -0.44000
C757        C  0.18447069  0.40503207  0.19943203    -0.00400
C758        C  0.16883150  0.44164598  0.20421664    -0.12300
C759        C  0.16103325  0.46513457  0.17335671     0.01800
C760        C  0.16906182  0.45226983  0.13615568    -0.00500
C761        C  0.18705867  0.41679796  0.13137716    -0.12200
C762        C  0.19499894  0.39324917  0.16241648     0.01700
H763        H  0.16135715  0.45183045  0.23227583     0.14700
H764        H  0.19376567  0.40675640  0.10305562     0.14700
C765        C  0.21264868  0.35683458  0.15475121     0.36300
C766        C  0.14217088  0.50098122  0.18109784     0.36200
N767        N  0.22693844  0.32777308  0.14835515    -0.44000
N768        N  0.12695430  0.52954979  0.18756021    -0.44000
C769        C  0.82870746  0.65769083  0.88860543    -0.00400
C770        C  0.86308714  0.67804126  0.89116447    -0.12300
C771        C  0.89454985  0.66278545  0.91044078     0.01800
C772        C  0.89206346  0.62622605  0.92690819    -0.00500
C773        C  0.85856075  0.60487936  0.92201392    -0.12200
C774        C  0.82692578  0.62034284  0.90341022     0.01700
H775        H  0.86481362  0.70665353  0.87969857     0.14700
H776        H  0.85652301  0.57655260  0.93413184     0.14700
C777        C  0.79291868  0.59733219  0.90008632     0.36300
C778        C  0.92907606  0.68504869  0.91271824     0.36200
N779        N  0.76571577  0.57883853  0.89745223    -0.44000
N780        N  0.95679576  0.70285608  0.91441318    -0.44000
C781        C  0.68119962  0.23818493  0.16182706    -0.00400
C782        C  0.66377061  0.24183164  0.12624619    -0.12300
C783        C  0.64528449  0.21098921  0.10926819     0.01800
C784        C  0.64399775  0.17556533  0.12805473    -0.00500
C785        C  0.66214620  0.17147561  0.16322906    -0.12200
C786        C  0.68102337  0.20238762  0.18012747     0.01700
H787        H  0.66348030  0.26931720  0.11220075     0.14700
H788        H  0.66088025  0.14432598  0.17782654     0.14700
C789        C  0.69763241  0.19721302  0.21721598     0.36300
C790        C  0.62520362  0.21733712  0.07405444     0.36200
N791        N  0.71095686  0.19310035  0.24694018    -0.44000
N792        N  0.60889260  0.22238165  0.04599105    -0.44000
C793        C  0.39963559  0.39320398  0.73765464    -0.00400
C794        C  0.42826201  0.37324985  0.71824201    -0.12300
C795        C  0.44537252  0.38882102  0.68580747     0.01800
C796        C  0.43276221  0.42445351  0.67171504    -0.00500
C797        C  0.40246493  0.44295260  0.69020830    -0.12200
C798        C  0.38659515  0.42823984  0.72325090     0.01700
H799        H  0.43803439  0.34604174  0.72909616     0.14700
H800        H  0.39176650  0.46986322  0.67961819     0.14700
C801        C  0.35688402  0.44978463  0.74184928     0.36300
C802        C  0.47537067  0.36745602  0.66757611     0.36200
N803        N  0.33327123  0.46720037  0.75682541    -0.44000
N804        N  0.49941429  0.35022476  0.65306745    -0.44000
C805        C  0.65970533  0.62991353  0.15133415    -0.00400
C806        C  0.67433449  0.66232814  0.13282953    -0.12300
C807        C  0.70659976  0.68113316  0.14636830     0.01800
C808        C  0.72487460  0.66780053  0.17915552    -0.00500
C809        C  0.70885412  0.63765635  0.19964111    -0.12200
C810        C  0.67643067  0.61857523  0.18610863     0.01700
H811        H  0.66129803  0.67253140  0.10689256     0.14700
H812        H  0.72255420  0.62811063  0.22550081     0.14700
C813        C  0.66211863  0.58688043  0.20789187     0.36300
C814        C  0.72025959  0.71425197  0.12627368     0.36200
N815        N  0.65065303  0.56156464  0.22548851    -0.44000
N816        N  0.73088734  0.74096136  0.11026498    -0.44000
C817        C  0.63438559  0.67453581  0.95677026    -0.00400
C818        C  0.66889366  0.68737580  0.97259767    -0.12300
C819        C  0.69981025  0.69680691  0.94972941     0.01800
C820        C  0.69648524  0.69409153  0.91002442    -0.00500
C821        C  0.66099812  0.68526777  0.89387726    -0.12200
C822        C  0.62994716  0.67529320  0.91686279     0.01700
H823        H  0.67251348  0.68808735  0.00312835     0.14700
H824        H  0.65825919  0.68358662  0.86330000     0.14700
C825        C  0.59515863  0.66311485  0.89856256     0.36300
C826        C  0.73505710  0.70814739  0.96778079     0.36200
N827        N  0.56728338  0.65334867  0.88388167    -0.44000
N828        N  0.76333994  0.71715324  0.98215094    -0.44000
C829        C  0.38583998  0.33580810  0.16822008    -0.00400
C830        C  0.36108676  0.35767944  0.14580492    -0.12300
C831        C  0.37441866  0.38966113  0.12591053     0.01800
C832        C  0.41323270  0.40045670  0.12887102    -0.00500
C833        C  0.43705006  0.37957957  0.15343679    -0.12200
C834        C  0.42390061  0.34764262  0.17274659     0.01700
H835        H  0.33160515  0.34890693  0.14267084     0.14700
H836        H  0.46671194  0.38745500  0.15707308     0.14700
C837        C  0.45020410  0.32783419  0.19736458     0.36300
C838        C  0.34769141  0.41008498  0.10242017     0.36200
N839        N  0.47141701  0.31214962  0.21702461    -0.44000
N840        N  0.32601753  0.42624980  0.08366389    -0.44000
C841        C  0.65771775  0.37068540  0.19434271    -0.00400
C842        C  0.67297602  0.40601981  0.18368767    -0.12300
C843        C  0.64906639  0.43555637  0.17127057     0.01800
C844        C  0.60911155  0.42982747  0.17007239    -0.00500
C845        C  0.59401760  0.39566253  0.18422873    -0.12200
C846        C  0.61780008  0.36618919  0.19607693     0.01700
H847        H  0.70363766  0.40953968  0.18223424     0.14700
H848        H  0.56343309  0.39116156  0.18429520     0.14700
C849        C  0.60043490  0.33096451  0.20842788     0.36300
C850        C  0.66656604  0.46979416  0.15671368     0.36200
N851        N  0.58653661  0.30268633  0.21808865    -0.44000
N852        N  0.68056699  0.49718127  0.14491414    -0.44000
C853        C  0.41213259  0.68356989  0.83163380    -0.00400
C854        C  0.41928288  0.64419584  0.83372485    -0.12300
C855        C  0.43401710  0.62780529  0.86643605     0.01800
C856        C  0.44158878  0.65080170  0.89843363    -0.00500
C857        C  0.43566605  0.69027605  0.89639247    -0.12200
C858        C  0.42090793  0.70685125  0.86336773     0.01700
H859        H  0.41317079  0.62576960  0.80972450     0.14700
H860        H  0.44241986  0.70811564  0.92066628     0.14700
C861        C  0.41621314  0.74772546  0.86270269     0.36300
C862        C  0.44301136  0.58753852  0.86558779     0.36200
N863        N  0.41256268  0.78051846  0.86235909    -0.44000
N864        N  0.45047106  0.55538868  0.86483069    -0.44000
C865        C  0.36720656  0.41105353  0.87104281    -0.00400
C866        C  0.36091258  0.45026983  0.86692708    -0.12300
C867        C  0.36828860  0.47548162  0.89673483     0.01800
C868        C  0.38317578  0.46144949  0.93126130    -0.00500
C869        C  0.38548424  0.42180324  0.93662262    -0.12200
C870        C  0.37765769  0.39652540  0.90680552     0.01700
H871        H  0.35154982  0.46140248  0.83982161     0.14700
H872        H  0.39653149  0.41057681  0.96304658     0.14700
C873        C  0.38429764  0.35632098  0.91263476     0.36300
C874        C  0.36144710  0.51563097  0.89056078     0.36200
N875        N  0.38971345  0.32412003  0.91733388    -0.44000
N876        N  0.35582555  0.54773606  0.88545841    -0.44000
C877        C  0.39324395  0.11284724  0.40512179    -0.00400
C878        C  0.39482797  0.13316386  0.37114756    -0.12300
C879        C  0.36168839  0.14929770  0.35565252     0.01800
C880        C  0.32618628  0.14505944  0.37464140    -0.00500
C881        C  0.32478872  0.12176003  0.40696968    -0.12200
C882        C  0.35772343  0.10583639  0.42219540     0.01700
H883        H  0.42212633  0.13762430  0.35750902     0.14700
H884        H  0.29800251  0.11668417  0.42134232     0.14700
C885        C  0.35437347  0.08224453  0.45556378     0.36300
C886        C  0.36568142  0.17057749  0.32094630     0.36200
N887        N  0.35184042  0.06322671  0.48217691    -0.44000
N888        N  0.36921613  0.18749193  0.29307503    -0.44000
C889        C  0.89422462  0.95008707  0.43448693    -0.00400
C890        C  0.89519908  0.96776232  0.39880464    -0.12300
C891        C  0.88733719  0.94728164  0.36573107     0.01800
C892        C  0.87835935  0.90807993  0.36786802    -0.00500
C893        C  0.87360295  0.89132408  0.40362290    -0.12200
C894        C  0.88118691  0.91192965  0.43684431     0.01700
H895        H  0.90399100  0.99731326  0.39634343     0.14700
H896        H  0.86548072  0.86154621  0.40566879     0.14700
C897        C  0.87572829  0.89290535  0.47267310     0.36300
C898        C  0.88879647  0.96737381  0.33007783     0.36200
N899        N  0.87114947  0.87759740  0.50131004    -0.44000
N900        N  0.88989716  0.98351586  0.30155033    -0.44000
C901        C  0.11635420  0.93282137  0.67471160    -0.00400
C902        C  0.09999362  0.89622534  0.67436188    -0.12300
C903        C  0.12190581  0.86388510  0.68187891     0.01800
C904        C  0.16121750  0.86776851  0.68957831    -0.00500
C905        C  0.17660777  0.90443597  0.69414170    -0.12200
C906        C  0.15456191  0.93689525  0.68716594     0.01700
H907        H  0.07039895  0.89248831  0.66629473     0.14700
H908        H  0.20641546  0.90782333  0.70158462     0.14700
C909        C  0.17226093  0.97373405  0.69260540     0.36300
C910        C  0.10319955  0.82715576  0.68149045     0.36200
N911        N  0.18654921  0.00314243  0.69727450    -0.44000
N912        N  0.08824204  0.79772449  0.68135349    -0.44000
C913        C  0.16676225  0.13169117  0.64567090    -0.00400
C914        C  0.16408753  0.16861250  0.66078342    -0.12300
C915        C  0.19592189  0.18608827  0.67726821     0.01800
C916        C  0.23111838  0.16664882  0.67773510    -0.00500
C917        C  0.23348664  0.12949314  0.66335642    -0.12200
C918        C  0.20164861  0.11176302  0.64763207     0.01700
H919        H  0.13735926  0.18401796  0.65899252     0.14700
H920        H  0.26059214  0.11462231  0.66359984     0.14700
C921        C  0.20635745  0.07426181  0.63113170     0.36300
C922        C  0.19232921  0.22466889  0.69128914     0.36200
N923        N  0.21010991  0.04428897  0.61780836    -0.44000
N924        N  0.18947133  0.25557305  0.70256595    -0.44000
C925        C  0.13416822  0.16897289  0.45555966    -0.00400
C926        C  0.12780981  0.18523106  0.41977247    -0.12300
C927        C  0.15808800  0.19345958  0.39541119     0.01800
C928        C  0.19585602  0.18493015  0.40666181    -0.00500
C929        C  0.20231012  0.17174996  0.44367585    -0.12200
C930        C  0.17213240  0.16391372  0.46816003     0.01700
H931        H  0.09887585  0.18999638  0.41002830     0.14700
H932        H  0.23116106  0.16626452  0.45327405     0.14700
C933        C  0.18137264  0.14831009  0.50491548     0.36300
C934        C  0.14895282  0.20858372  0.35848944     0.36200
N935        N  0.18895650  0.13586520  0.53431373    -0.44000
N936        N  0.14140237  0.22088275  0.32902774    -0.44000
C937        C  0.92002187  0.89911769  0.63400318    -0.00400
C938        C  0.90297538  0.87252791  0.60922380    -0.12300
C939        C  0.88497487  0.83994832  0.62315758     0.01800
C940        C  0.88328730  0.83404288  0.66245036    -0.00500
C941        C  0.89781289  0.86160753  0.68733550    -0.12200
C942        C  0.91632281  0.89395134  0.67355364     0.01700
H943        H  0.90523808  0.87616566  0.57881450     0.14700
H944        H  0.89609829  0.85700604  0.71767667     0.14700
C945        C  0.93158523  0.92082828  0.70072537     0.36300
C946        C  0.86883566  0.81286401  0.59670553     0.36200
N947        N  0.94386475  0.94220949  0.72262396    -0.44000
N948        N  0.85579015  0.79136242  0.57537011    -0.44000
C949        C  0.17481043  0.67517887  0.23022848    -0.00400
C950        C  0.14395584  0.69388757  0.21326595    -0.12300
C951        C  0.12558527  0.67807761  0.18154533     0.01800
C952        C  0.13877880  0.64320152  0.16598061    -0.00500
C953        C  0.17133666  0.62604647  0.18195900    -0.12200
C954        C  0.18906722  0.64147957  0.21391123     0.01700
H955        H  0.13322509  0.72005879  0.22578030     0.14700
H956        H  0.18223755  0.59946414  0.17052184     0.14700
C957        C  0.22169722  0.62201164  0.22970079     0.36300
C958        C  0.09312300  0.69803234  0.16617734     0.36200
N959        N  0.24784265  0.60644350  0.24232105    -0.44000
N960        N  0.06704460  0.71409799  0.15404619    -0.44000
C961        C  0.67210334  0.43093859  0.43152243    -0.00400
C962        C  0.69555544  0.40651093  0.45266903    -0.12300
C963        C  0.72808581  0.39032399  0.43687638     0.01800
C964        C  0.73762176  0.39818944  0.39890019    -0.00500
C965        C  0.71349193  0.42130137  0.37708136    -0.12200
C966        C  0.68103630  0.43805202  0.39316636     0.01700
H967        H  0.68905652  0.40075571  0.48215043     0.14700
H968        H  0.72057588  0.42709567  0.34775821     0.14700
C969        C  0.65730835  0.46188745  0.36964499     0.36300
C970        C  0.75068027  0.36516194  0.46022189     0.36200
N971        N  0.63830422  0.48098691  0.35076336    -0.44000
N972        N  0.76856846  0.34500939  0.47909299    -0.44000
C973        C  0.19099837  0.73691069  0.65243270    -0.00400
C974        C  0.17543864  0.70804853  0.67494202    -0.12300
C975        C  0.15842593  0.67606809  0.65832675     0.01800
C976        C  0.15804397  0.67220256  0.61852476    -0.00500
C977        C  0.17548753  0.70023414  0.59610303    -0.12200
C978        C  0.19126850  0.73291934  0.61275798     0.01700
H979        H  0.17499230  0.71139756  0.70551419     0.14700
H980        H  0.17490772  0.69760039  0.56547344     0.14700
C981        C  0.20649334  0.76245265  0.58871181     0.36300
C982        C  0.14102834  0.64800494  0.68265867     0.36200
N983        N  0.21856059  0.78619194  0.56943955    -0.44000
N984        N  0.12693348  0.62563450  0.70218014    -0.44000
C985        C  0.96077528  0.64393627  0.67270983    -0.00400
C986        C  0.92139125  0.63637106  0.67209967    -0.12300
C987        C  0.89500482  0.66468034  0.68213660     0.01800
C988        C  0.90808423  0.70125982  0.69255541    -0.00500
C989        C  0.94731126  0.70758814  0.69669307    -0.12200
C990        C  0.97363874  0.67916010  0.68758503     0.01700
H991        H  0.91105520  0.60925640  0.66133217     0.14700
H992        H  0.95746213  0.73532119  0.70602580     0.14700
C993        C  0.01362530  0.68709756  0.69344216     0.36300
C994        C  0.85485404  0.65648566  0.67855972     0.36200
N995        N  0.04562302  0.69338197  0.69839924    -0.44000
N996        N  0.82265176  0.64993332  0.67582199    -0.44000
C997        C  0.12777896  0.41445463  0.40183089    -0.00400
C998        C  0.15047509  0.43717092  0.37803730    -0.12300
C999        C  0.16592761  0.42277170  0.34469036     0.01800
C1000       C  0.15910006  0.38455771  0.33426395    -0.00500
C1001       C  0.13853735  0.36085045  0.35882987    -0.12200
C1002       C  0.12261927  0.37545978  0.39236600     0.01700
H1003       H  0.15533039  0.46697982  0.38468361     0.14700
H1004       H  0.13397967  0.33117602  0.35125856     0.14700
C1005       C  0.10110711  0.34981977  0.41604802     0.36300
C1006       C  0.18919057  0.44791789  0.32200279     0.36200
N1007       N  0.08390558  0.32911679  0.43492371    -0.44000
N1008       N  0.20778914  0.46807427  0.30386747    -0.44000
C1009       C  0.17603934  0.60893011  0.42560405    -0.00400
C1010       C  0.17094164  0.64853974  0.42854607    -0.12300
C1011       C  0.18114802  0.67255223  0.39871074     0.01800
C1012       C  0.19684503  0.65676880  0.36540795    -0.00500
C1013       C  0.20467242  0.61765158  0.36363821    -0.12200
C1014       C  0.19487724  0.59371722  0.39360470     0.01700
H1015       H  0.15647346  0.66049733  0.45298339     0.14700
H1016       H  0.21767637  0.60567081  0.33839593     0.14700
C1017       C  0.20440861  0.55374207  0.39075465     0.36300
C1018       C  0.17197142  0.71262563  0.40159676     0.36200
N1019       N  0.21245437  0.52181027  0.38853334    -0.44000
N1020       N  0.16452878  0.74471332  0.40380279    -0.44000
C1021       C  0.84314845  0.40983807  0.68441236    -0.00400
C1022       C  0.87660457  0.38904160  0.67762040    -0.12300
C1023       C  0.90910183  0.40714189  0.66351279     0.01800
C1024       C  0.90858905  0.44680313  0.65731669    -0.00500
C1025       C  0.87607019  0.46797498  0.66667983    -0.12200
C1026       C  0.84319488  0.44975208  0.67964485     0.01700
H1027       H  0.87672926  0.35835795  0.68150191     0.14700
H1028       H  0.87562349  0.49850619  0.66173460     0.14700
C1029       C  0.80980897  0.47250843  0.68737395     0.36300
C1030       C  0.94235625  0.38449779  0.65492475     0.36200
N1031       N  0.78307653  0.49080163  0.69350219    -0.44000
N1032       N  0.96903831  0.36639652  0.64805369    -0.44000
C1033       C  0.93340616  0.39290106  0.46058107    -0.00400
C1034       C  0.93632248  0.40049838  0.42159363    -0.12300
C1035       C  0.90657637  0.39102092  0.39676052     0.01800
C1036       C  0.87356681  0.37327451  0.41098597    -0.00500
C1037       C  0.87215177  0.36269001  0.44922968    -0.12200
C1038       C  0.90179018  0.37212445  0.47402404     0.01700
H1039       H  0.96044870  0.41655840  0.41098022     0.14700
H1040       H  0.84710505  0.34830724  0.46006151     0.14700
C1041       C  0.89870157  0.36092146  0.51324571     0.36300
C1042       C  0.90891606  0.40324835  0.35779941     0.36200
N1043       N  0.89632875  0.35186061  0.54465318    -0.44000
N1044       N  0.91063048  0.41320152  0.32661860    -0.44000
C1045       C  0.40632580  0.93609374  0.15289864    -0.00400
C1046       C  0.40354433  0.89611416  0.15446895    -0.12300
C1047       C  0.37210557  0.87865405  0.17130847     0.01800
C1048       C  0.34269144  0.90141318  0.18609355    -0.00500
C1049       C  0.34648180  0.94096259  0.18717466    -0.12200
C1050       C  0.37822371  0.95855871  0.17127361     0.01700
H1051       H  0.42520878  0.87848875  0.14129328     0.14700
H1052       H  0.32382976  0.95819791  0.19922763     0.14700
C1053       C  0.37935787  0.99969056  0.17222621     0.36300
C1054       C  0.36960647  0.83752533  0.17141611     0.36200
N1055       N  0.37983856  0.03266169  0.17335414    -0.44000
N1056       N  0.36758691  0.80457662  0.17173883    -0.44000
C1057       C  0.93478191  0.14383506  0.40182146    -0.00400
C1058       C  0.89676618  0.15608679  0.40309091    -0.12300
C1059       C  0.88020021  0.17429164  0.37188910     0.01800
C1060       C  0.90157946  0.17924163  0.33846421    -0.00500
C1061       C  0.93983585  0.16811805  0.33761797    -0.12200
C1062       C  0.95675853  0.15099647  0.36903652     0.01700
H1063       H  0.87985210  0.15084951  0.42822869     0.14700
H1064       H  0.95630407  0.17203662  0.31193056     0.14700
C1065       C  0.99598957  0.13889458  0.36579676     0.36300
C1066       C  0.84072670  0.18560080  0.37407401     0.36200
N1067       N  0.02742490  0.12930053  0.36322630    -0.44000
N1068       N  0.80912277  0.19479977  0.37580235    -0.44000
C1069       C  0.14094977  0.39672153  0.93286674    -0.00400
C1070       C  0.12255268  0.37574184  0.90420591    -0.12300
C1071       C  0.13926604  0.34336089  0.88838411     0.01800
C1072       C  0.17548550  0.33129940  0.90077498    -0.00500
C1073       C  0.19514352  0.35318900  0.92782390    -0.12200
C1074       C  0.17813705  0.38564806  0.94412955     0.01700
H1075       H  0.09424333  0.38380672  0.89485347     0.14700
H1076       H  0.22324664  0.34427764  0.93702764     0.14700
C1077       C  0.19954549  0.40699732  0.97202774     0.36300
C1078       C  0.11860471  0.32307075  0.85914420     0.36200
N1079       N  0.21671770  0.42415126  0.99434333    -0.44000
N1080       N  0.10211330  0.30684414  0.83568344    -0.44000
C1081       C  0.16566665  0.94092607  0.91623321    -0.00400
C1082       C  0.18389533  0.91188453  0.93702603    -0.12300
C1083       C  0.21635956  0.89374077  0.92339777     0.01800
C1084       C  0.23085702  0.90355354  0.88765278    -0.00500
C1085       C  0.21151638  0.93034686  0.86536693    -0.12200
C1086       C  0.17934896  0.94947253  0.87944559     0.01700
H1087       H  0.17372125  0.90402963  0.96492533     0.14700
H1088       H  0.22262029  0.93761941  0.83765165     0.14700
C1089       C  0.16237722  0.97863671  0.85610625     0.36300
C1090       C  0.23446122  0.86529100  0.94690237     0.36200
N1091       N  0.14902264  0.00207551  0.83727710    -0.44000
N1092       N  0.24897390  0.84262697  0.96581860    -0.44000
C1093       C  0.21005777  0.87405667  0.15583062    -0.00400
C1094       C  0.17385974  0.87965160  0.17158591    -0.12300
C1095       C  0.14323930  0.89131806  0.14906493     0.01800
C1096       C  0.14860913  0.89684019  0.10971654    -0.00500
C1097       C  0.18403147  0.88754102  0.09361282    -0.12200
C1098       C  0.21469050  0.87647955  0.11620363     0.01700
H1099       H  0.17005716  0.87754111  0.20200522     0.14700
H1100       H  0.18839234  0.89056207  0.06334598     0.14700
C1101       C  0.25069326  0.86859507  0.09795666     0.36300
C1102       C  0.10789490  0.90039727  0.16787885     0.36200
N1103       N  0.27952851  0.86243814  0.08331258    -0.44000
N1104       N  0.07971472  0.90780724  0.18316782    -0.44000
C1105       C  0.90690908  0.15801669  0.95067871    -0.00400
C1106       C  0.89395104  0.18955392  0.97147983    -0.12300
C1107       C  0.88010685  0.22188391  0.95293239     0.01800
C1108       C  0.87808504  0.22227592  0.91303449    -0.00500
C1109       C  0.88816783  0.18952995  0.89243441    -0.12200
C1110       C  0.90310415  0.15764448  0.91092508     0.01700
H1111       H  0.89697657  0.18991228  0.00207868     0.14700
H1112       H  0.88641642  0.18967424  0.86174608     0.14700
C1113       C  0.91529717  0.12526403  0.88862377     0.36300
C1114       C  0.86893282  0.25456243  0.97531239     0.36200
N1115       N  0.92515426  0.09923197  0.87093774    -0.44000
N1116       N  0.86003113  0.28080500  0.99319189    -0.44000
C1117       C  0.15520570  0.19705458  0.87255407    -0.00400
C1118       C  0.11585266  0.20417701  0.87319836    -0.12300
C1119       C  0.08982190  0.17571345  0.88281513     0.01800
C1120       C  0.10308932  0.13907567  0.89312035    -0.00500
C1121       C  0.14206975  0.13076471  0.88834189    -0.12200
C1122       C  0.16811302  0.15932496  0.87791363     0.01700
H1123       H  0.10535910  0.23267204  0.86749109     0.14700
H1124       H  0.15272946  0.10258589  0.89518565     0.14700
C1125       C  0.20798666  0.14964373  0.87562829     0.36300
C1126       C  0.04981523  0.18549035  0.88272476     0.36200
N1127       N  0.23990219  0.14166629  0.87358354    -0.44000
N1128       N  0.01781543  0.19343663  0.88254951    -0.44000
C1129       C  0.95314393  0.90977027  0.17279117    -0.00400
C1130       C  0.97399054  0.90201554  0.20578045    -0.12300
C1131       C  0.95580446  0.88818320  0.23818007     0.01800
C1132       C  0.91639610  0.88041946  0.23715154    -0.00500
C1133       C  0.89593964  0.88633801  0.20350534    -0.12200
C1134       C  0.91381395  0.90181035  0.17167665     0.01700
H1135       H  0.00406867  0.90892576  0.20695253     0.14700
H1136       H  0.86552760  0.88086713  0.20277328     0.14700
C1137       C  0.89108116  0.91050774  0.13868286     0.36300
C1138       C  0.97793380  0.88309392  0.27232401     0.36200
N1139       N  0.87282774  0.91772177  0.11233165    -0.44000
N1140       N  0.99562825  0.87927728  0.29974696    -0.44000
C1141       C  0.87467758  0.15638645  0.20506023    -0.00400
C1142       C  0.86861068  0.11709646  0.20925247    -0.12300
C1143       C  0.87898620  0.09149785  0.18066980     0.01800
C1144       C  0.89617976  0.10525926  0.14721104    -0.00500
C1145       C  0.89945493  0.14484555  0.14187173    -0.12200
C1146       C  0.88910000  0.17044575  0.17059196     0.01700
H1147       H  0.85696763  0.10626760  0.23556843     0.14700
H1148       H  0.91280758  0.15573994  0.11641437     0.14700
C1149       C  0.89721138  0.21048321  0.16549970     0.36300
C1150       C  0.87238213  0.05129088  0.18680614     0.36200
N1151       N  0.90396021  0.24253715  0.16154298    -0.44000
N1152       N  0.86703295  0.01911051  0.19177084    -0.44000
loop_ 
_geom_bond_atom_site_label_1 
_geom_bond_atom_site_label_2 
_geom_bond_distance 
_geom_bond_site_symmetry_2 
_ccdc_geom_bond_type 
C1            N2   1.358       .  A
C1            N6   1.356       .  A
C1          C173   1.460       .  S
N2            C3   1.354       .  A
C3            N4   1.360       .  A
C3          C567   1.469       .  S
N4            C5   1.360       .  A
C5            N6   1.357       .  A
C5          C305   1.467       .  S
C7            N8   1.359       .  A
C7           N12   1.355       .  A
C7          C167   1.454       .  S
N8            C9   1.356       .  A
C9           N10   1.349       .  A
C9          C555   1.456       .  S
N10          C11   1.351       .  A
C11          N12   1.353       .  A
C11         C107   1.449       .  S
C13          N14   1.356       .  A
C13          N18   1.357       .  A
C13         C239   1.459       .  S
N14          C15   1.355       .  A
C15          N16   1.353       .  A
C15         C359   1.456       .  S
N16          C17   1.354       .  A
C17          N18   1.356       .  A
C17         C489   1.456       .  S
C19          N20   1.354       .  A
C19          N24   1.353       .  A
C19         C431   1.456       .  S
N20          C21   1.354       .  A
C21          N22   1.356       .  A
C21         C231   1.458       .  S
N22          C23   1.357       .  A
C23          N24   1.356       .  A
C23         C363   1.454       .  S
C25          N26   1.359       .  A
C25          N30   1.354       .  A
C25         C161   1.460       .  S
N26          C27   1.359       .  A
C27          N28   1.359       .  A
C27         C297   1.463       .  S
N28          C29   1.355       .  A
C29          N30   1.354       .  A
C29         C101   1.460       .  S
C31          N32   1.357       .  A
C31          N36   1.355       .  A
C31         C501   1.460       .  S
N32          C33   1.357       .  A
C33          N34   1.355       .  A
C33         C369   1.457       .  S
N34          C35   1.353       .  A
C35          N36   1.355       .  A
C35         C423   1.456       .  S
C37          N38   1.356       .  A
C37          N42   1.355       .  A
C37         C435   1.456       .  S
N38          C39   1.355       .  A
C39          N40   1.355       .  A
C39         C495   1.457       .  S
N40          C41   1.355       .  A
C41          N42   1.355       .  A
C41         C225   1.457       .  S
O43         Mg45   2.105   1_546  S
O43         Mg51   2.144       .  S
O43          C78   1.234   1_556  S
C44          O57   1.239   1_655  S
C44          O81   1.274       .  A
C44          H83   1.081       .  S
Mg45         O74   2.151       .  S
Mg45         O89   2.253   1_554  S
Mg45         O85   2.227       .  S
Mg45         O56   2.288   1_565  S
O46         Mg88   2.136       .  S
O46         Mg71   2.132   1_654  S
O46          C67   1.236   1_655  S
O47          C78   1.267       .  A
O47         Mg71   2.285   1_554  S
C48        C1129   1.468       .  S
C48          O50   1.271   1_655  A
C48          O62   1.272       .  A
O49          C77   1.273       .  A
O49         Mg51   2.307   1_565  S
O50         Mg82   2.269       .  S
Mg51         O57   2.143       .  S
Mg51         O65   2.282   1_545  S
Mg51         O53   2.320       .  S
C52        C1144   1.478       .  S
C52          O90   1.269       .  A
C52          O58   1.275       .  A
O53          C60   1.277       .  A
H54          C67   1.081       .  S
C55          O69   1.237   1_565  S
C55          O70   1.272       .  A
C55          H80   1.081       .  S
O56          C79   1.268       .  A
O57         Mg71   2.145       .  S
O58         Mg88   2.309       .  S
C59        C1105   1.466       .  S
C59          O72   1.270       .  A
C59          O64   1.272       .  A
C60        C1120   1.489       .  S
C60          O87   1.271       .  A
Mg61         O68   2.114   1_645  S
Mg61         O69   2.139       .  S
Mg61         O62   2.284   1_545  S
Mg61         O63   2.298   1_655  S
Mg61         O90   2.236       .  S
O63          C67   1.270       .  A
O64         Mg71   2.279   1_655  S
O65          C84   1.272       .  A
O66          C86   1.273       .  A
O66         Mg82   2.295       .  S
O68         Mg82   2.138       .  S
O68          C79   1.235   1_565  S
O69         Mg88   2.138       .  S
O70         Mg82   2.305   1_655  S
Mg71         O87   2.247       .  S
O72         Mg88   2.257   1_556  S
H73          C78   1.081       .  S
O74         Mg82   2.145       .  S
O74          C77   1.238   1_554  S
H75          C77   1.081       .  S
H76          C79   1.081       .  S
O81         Mg88   2.310   1_556  S
C84        C1081   1.490       .  S
C84          O89   1.271       .  A
O85          C86   1.268       .  A
C86        C1096   1.481       .  S
C91          N92   1.353       .  A
C91          N96   1.355       .  A
C91        C1072   1.475       .  S
N92          C93   1.355       .  A
C93          N94   1.361       .  A
C93        C1117   1.485       .  S
N94          C95   1.365       .  A
C95          N96   1.362       .  A
C95         C571   1.470       .  S
C97          N98   1.353       .  A
C97         N102   1.353       .  A
C97        C1060   1.468       .  S
N98          C99   1.355       .  A
C99         N100   1.359       .  A
C99        C1141   1.471       .  S
N100        C101   1.360       .  A
C101        N102   1.358       .  A
C103        N104   1.351       .  A
C103        N108   1.347       .  A
C103       C1048   1.455       .  S
N104        C105   1.356       .  A
C105        N106   1.358       .  A
C105       C1093   1.472       .  S
N106        C107   1.357       .  A
C107        N108   1.354       .  A
O109       Mg111   2.108       .  S
O109       Mg117   2.136       .  S
O109        C144   1.235       .  S
C110        O123   1.239       .  S
C110        O147   1.274       .  A
C110        H149   1.081       .  S
Mg111       O140   2.143       .  S
Mg111       O155   2.267       .  S
Mg111       O151   2.229       .  S
Mg111       O122   2.293       .  S
O112       Mg154   2.134   1_655  S
O112       Mg137   2.129       .  S
O112        C133   1.235       .  S
O113        C144   1.268   1_655  A
O113       Mg137   2.293       .  S
C114        C976   1.471       .  S
C114        O116   1.270       .  A
C114        O128   1.273       .  A
O115        C143   1.273       .  A
O115       Mg117   2.309       .  S
O116       Mg148   2.258       .  S
Mg117       O123   2.143       .  S
Mg117       O131   2.270       .  S
Mg117       O119   2.303   1_455  S
C118        C985   1.483       .  S
C118        O156   1.271   1_655  A
C118        O124   1.275       .  A
O119        C126   1.273       .  A
H120        C133   1.081       .  S
C121        O135   1.237       .  S
C121        O136   1.272       .  A
C121        H146   1.082       .  S
O122        C145   1.268       .  A
O123       Mg137   2.142   1_455  S
O124       Mg154   2.314   1_655  S
C125       C1024   1.465       .  S
C125        O138   1.270       .  A
C125        O130   1.272       .  A
C126       C1033   1.477       .  S
C126        O153   1.271       .  A
Mg127       O134   2.121       .  S
Mg127       O135   2.143       .  S
Mg127       O128   2.290       .  S
Mg127       O129   2.296   1_455  S
Mg127       O156   2.245       .  S
O129        C133   1.269       .  A
O130       Mg137   2.284       .  S
O131        C150   1.270       .  A
O132        C152   1.274       .  A
O132       Mg148   2.302       .  S
O134       Mg148   2.139       .  S
O134        C145   1.235       .  S
O135       Mg154   2.140       .  S
O136       Mg148   2.305       .  S
Mg137       O153   2.250       .  S
O138       Mg154   2.256   1_655  S
H139        C144   1.081       .  S
O140       Mg148   2.144       .  S
O140        C143   1.238       .  S
H141        C143   1.081       .  S
H142        C145   1.081       .  S
O147       Mg154   2.311       .  S
C150        C997   1.488       .  S
C150        O155   1.272       .  A
O151        C152   1.267       .  A
C152       C1009   1.473       .  S
C157        N158   1.354       .  A
C157        N162   1.356       .  A
C157        C964   1.471       .  S
N158        C159   1.353       .  A
C159        N160   1.356       .  A
C159       C1036   1.471       .  S
N160        C161   1.360       .  A
C161        N162   1.358       .  A
C163        N164   1.355       .  A
C163        N168   1.355       .  A
C163        C949   1.467       .  S
N164        C165   1.356       .  A
C165        N166   1.354       .  A
C165       C1012   1.467       .  S
N166        C167   1.355       .  A
C167        N168   1.358       .  A
C169        N170   1.353       .  A
C169        N174   1.350       .  A
C169        C940   1.460       .  S
N170        C171   1.357       .  A
C171        N172   1.360       .  A
C171        C988   1.474       .  S
N172        C173   1.361       .  A
C173        N174   1.355       .  A
O175       Mg177   2.137       .  S
O175       Mg183   2.154   1_545  S
O175        C210   1.238       .  S
C176        O189   1.234       .  S
C176        O213   1.267       .  A
C176        H215   1.081       .  S
Mg177       O206   2.143       .  S
Mg177       O221   2.290       .  S
Mg177       O217   2.263       .  S
Mg177       O188   2.296       .  S
O178       Mg220   2.148       .  S
O178       Mg203   2.129   1_545  S
O178        C199   1.238       .  S
O179        C210   1.273       .  A
O179       Mg203   2.303   1_645  S
C180        C925   1.482       .  S
C180        O182   1.270       .  A
C180        O194   1.272       .  A
O181        C209   1.267   1_565  A
O181       Mg183   2.289   1_455  S
O182       Mg214   2.246       .  S
Mg183       O189   2.122   1_655  S
Mg183       O197   2.250       .  S
Mg183       O185   2.275       .  S
C184        C913   1.465       .  S
C184        O222   1.269       .  A
C184        O190   1.270       .  A
O185        C192   1.272       .  A
H186        C199   1.081       .  S
C187        O201   1.235       .  S
C187        O202   1.267       .  A
C187        H212   1.081       .  S
O188        C211   1.271       .  A
O189       Mg203   2.140       .  S
O190       Mg220   2.266       .  S
C191        C901   1.485       .  S
C191        O204   1.268       .  A
C191        O196   1.276       .  A
C192        C937   1.478       .  S
C192        O219   1.270       .  A
Mg193       O200   2.128       .  S
Mg193       O201   2.143       .  S
Mg193       O194   2.284       .  S
Mg193       O195   2.299       .  S
Mg193       O222   2.242       .  S
O195        C199   1.272       .  A
O196       Mg203   2.307       .  S
O197        C216   1.270       .  A
O198        C218   1.271       .  A
O198       Mg214   2.269   1_655  S
O200       Mg214   2.152       .  S
O200        C211   1.237   1_455  S
O201       Mg220   2.110       .  S
O202       Mg214   2.288       .  S
Mg203       O219   2.245   1_455  S
O204       Mg220   2.236   1_565  S
H205        C210   1.081       .  S
O206       Mg214   2.113   1_655  S
O206        C209   1.235   1_655  S
H207        C209   1.081       .  S
H208        C211   1.081       .  S
O213       Mg220   2.291   1_565  S
C216        C889   1.485       .  S
C216        O221   1.274   1_565  A
O217        C218   1.272       .  A
C218       C1057   1.473       .  S
C223        N224   1.353       .  A
C223        N228   1.353       .  A
C223        C973   1.463       .  S
N224        C225   1.357       .  A
C225        N226   1.357       .  A
N226        C227   1.357       .  A
C227        N228   1.357       .  A
C227        C904   1.478       .  S
C229        N230   1.354       .  A
C229        N234   1.359       .  A
C229        C880   1.492       .  S
N230        C231   1.356       .  A
C231        N232   1.356       .  A
N232        C233   1.355       .  A
C233        N234   1.358       .  A
C233        C928   1.485       .  S
C235        N236   1.355       .  A
C235        N240   1.355       .  A
C235       C1132   1.470       .  S
N236        C237   1.357       .  A
C237        N238   1.357       .  A
C237        C892   1.479       .  S
N238        C239   1.357       .  A
C239        N240   1.357       .  A
O241       Mg243   2.111       .  S
O241       Mg249   2.147       .  S
O241        C276   1.235       .  S
C242        O255   1.239       .  S
C242        O279   1.275       .  A
C242        H281   1.081       .  S
Mg243       O272   2.146       .  S
Mg243       O287   2.258       .  S
Mg243       O283   2.242       .  S
Mg243       O254   2.282       .  S
O244       Mg286   2.131   1_556  S
O244       Mg269   2.125       .  S
O244        C265   1.234       .  S
O245        C276   1.268   1_556  A
O245       Mg269   2.289       .  S
C246        C805   1.486       .  S
C246        O248   1.271       .  A
C246        O260   1.270       .  A
O247        C275   1.271       .  A
O247       Mg249   2.298       .  S
O248       Mg280   2.268       .  S
Mg249       O255   2.158       .  S
Mg249       O263   2.295       .  S
Mg249       O251   2.315   1_554  S
C250        C817   1.485       .  S
C250        O288   1.268   1_556  A
C250        O256   1.275       .  A
O251        C258   1.276       .  A
H252        C265   1.081       .  S
C253        O267   1.238       .  S
C253        O268   1.273       .  A
C253        H278   1.081       .  S
O254        C277   1.267       .  A
O255       Mg269   2.142   1_554  S
O256       Mg286   2.324   1_556  S
C257        C856   1.469       .  S
C257        O270   1.268       .  A
C257        O262   1.271       .  A
C258        C868   1.480       .  S
C258        O285   1.269       .  A
Mg259       O266   2.104       .  S
Mg259       O267   2.146       .  S
Mg259       O260   2.256       .  S
Mg259       O261   2.297   1_554  S
Mg259       O288   2.225       .  S
O261        C265   1.268       .  A
O262       Mg269   2.276       .  S
O263        C282   1.275       .  A
O264        C284   1.274       .  A
O264       Mg280   2.303       .  S
O266       Mg280   2.142       .  S
O266        C277   1.235       .  S
O267       Mg286   2.133       .  S
O268       Mg280   2.304       .  S
Mg269       O285   2.231       .  S
O270       Mg286   2.248   1_556  S
H271        C276   1.081       .  S
O272       Mg280   2.135       .  S
O272        C275   1.237       .  S
H273        C275   1.081       .  S
H274        C277   1.081       .  S
O279       Mg286   2.322       .  S
C282        C832   1.492       .  S
C282        O287   1.272       .  A
O283        C284   1.271       .  A
C284        C844   1.482       .  S
C289        N290   1.356       .  A
C289        N294   1.356       .  A
C289        C793   1.473       .  S
N290        C291   1.357       .  A
C291        N292   1.355       .  A
C291        C865   1.472       .  S
N292        C293   1.357       .  A
C293        N294   1.359       .  A
C293        C573   1.459       .  S
C295        N296   1.354       .  A
C295        N300   1.351       .  A
C295        C781   1.473       .  S
N296        C297   1.359       .  A
C297        N298   1.363       .  A
N298        C299   1.360       .  A
C299        N300   1.353       .  A
C299        C841   1.474       .  S
C301        N302   1.354       .  A
C301        N306   1.359       .  A
C301        C769   1.480       .  S
N302        C303   1.355       .  A
C303        N304   1.357       .  A
C303        C820   1.474       .  S
N304        C305   1.360       .  A
C305        N306   1.362       .  A
O307       Mg309   2.146   1_455  S
O307       Mg315   2.157       .  S
O307        C342   1.239       .  S
C308        O321   1.235       .  S
C308        O345   1.269       .  A
C308        H347   1.082       .  S
Mg309       O338   2.143       .  S
Mg309       O353   2.296       .  S
Mg309       O349   2.278   1_554  S
Mg309       O320   2.295   1_654  S
O310       Mg352   2.151       .  S
O310       Mg335   2.128       .  S
O310        C331   1.238   1_554  S
O311        C342   1.273       .  A
O311       Mg335   2.302       .  S
C312        C733   1.483       .  S
C312        O314   1.272       .  A
C312        O326   1.272   1_655  A
O313        C341   1.268       .  A
O313       Mg315   2.292   1_655  S
O314       Mg346   2.262       .  S
Mg315       O321   2.127       .  S
Mg315       O329   2.261   1_455  S
Mg315       O317   2.320       .  S
C316       C1069   1.488       .  S
C316        O354   1.272       .  A
C316        O322   1.274       .  A
O317        C324   1.276       .  A
H318        C331   1.081       .  S
C319        O333   1.235       .  S
C319        O334   1.268   1_455  A
C319        H344   1.081       .  S
O320        C343   1.272       .  A
O321       Mg335   2.137       .  S
O322       Mg352   2.304   1_556  S
C323        C760   1.483       .  S
C323        O336   1.271       .  A
C323        O328   1.272       .  A
C324        C952   1.488       .  S
C324        O351   1.269       .  A
Mg325       O332   2.137       .  S
Mg325       O333   2.137   1_556  S
Mg325       O326   2.277       .  S
Mg325       O327   2.296       .  S
Mg325       O354   2.253       .  S
O327        C331   1.271       .  A
O328       Mg335   2.285       .  S
O329        C348   1.273       .  A
O330        C350   1.274       .  A
O330       Mg346   2.294       .  S
O332       Mg346   2.160   1_455  S
O332        C343   1.239       .  S
O333       Mg352   2.115       .  S
O334       Mg346   2.291   1_554  S
Mg335       O351   2.228       .  S
O336       Mg352   2.255       .  S
H337        C342   1.081       .  S
O338       Mg346   2.119   1_554  S
O338        C341   1.235       .  S
H339        C341   1.081       .  S
H340        C343   1.081       .  S
O345       Mg352   2.300       .  S
C348        C748   1.491       .  S
C348        O353   1.276       .  A
O349        C350   1.274       .  A
C350        C772   1.481       .  S
C355        N356   1.358       .  A
C355        N360   1.353       .  A
C355        C808   1.465       .  S
N356        C357   1.359       .  A
C357        N358   1.357       .  A
C357        C745   1.480       .  S
N358        C359   1.355       .  A
C359        N360   1.356       .  A
C361        N362   1.354       .  A
C361        N366   1.356       .  A
C361       C1000   1.472       .  S
N362        C363   1.357       .  A
C363        N364   1.357       .  A
N364        C365   1.355       .  A
C365        N366   1.357       .  A
C365        C757   1.491       .  S
C367        N368   1.354       .  A
C367        N372   1.356       .  A
C367       C1108   1.469       .  S
N368        C369   1.356       .  A
C369        N370   1.356       .  A
N370        C371   1.357       .  A
C371        N372   1.358       .  A
C371        C736   1.481       .  S
O373       Mg375   2.127   1_554  S
O373       Mg381   2.155       .  S
O373        C408   1.238       .  S
C374        O387   1.235       .  S
C374        O411   1.268       .  A
C374        H413   1.081       .  S
Mg375       O404   2.146       .  S
Mg375       O419   2.291       .  S
Mg375       O415   2.252   1_545  S
Mg375       O386   2.298   1_546  S
O376       Mg418   2.145       .  S
O376       Mg401   2.133       .  S
O376        C397   1.238   1_545  S
O377        C408   1.271       .  A
O377       Mg401   2.293       .  S
C378        C685   1.488       .  S
C378        O380   1.271       .  A
C378        O392   1.274   1_556  A
O379        C407   1.267       .  A
O379       Mg381   2.288   1_556  S
O380       Mg412   2.242       .  S
Mg381       O387   2.117       .  S
Mg381       O395   2.259   1_554  S
Mg381       O383   2.279       .  S
C382       C1045   1.478       .  S
C382        O420   1.271       .  A
C382        O388   1.270       .  A
O383        C390   1.273       .  A
H384        C397   1.081       .  S
C385        O399   1.234       .  S
C385        O400   1.267   1_554  A
C385        H410   1.081       .  S
O386        C409   1.272       .  A
O387       Mg401   2.147       .  S
O388       Mg418   2.272   1_565  S
C389        C724   1.489       .  S
C389        O402   1.270       .  A
C389        O394   1.273       .  A
C390        C784   1.469       .  S
C390        O417   1.270       .  A
Mg391       O398   2.133       .  S
Mg391       O399   2.137   1_565  S
Mg391       O392   2.302       .  S
Mg391       O393   2.303       .  S
Mg391       O420   2.249       .  S
O393        C397   1.273       .  A
O394       Mg401   2.294       .  S
O395        C414   1.271       .  A
O396        C416   1.272       .  A
O396       Mg412   2.279       .  S
O398       Mg412   2.152   1_554  S
O398        C409   1.238       .  S
O399       Mg418   2.117       .  S
O400       Mg412   2.293   1_545  S
Mg401       O417   2.249       .  S
O402       Mg418   2.247       .  S
H403        C408   1.081       .  S
O404       Mg412   2.115   1_545  S
O404        C407   1.235       .  S
H405        C407   1.081       .  S
H406        C409   1.081       .  S
O411       Mg418   2.290       .  S
C414        C712   1.487       .  S
C414        O419   1.275       .  A
O415        C416   1.270       .  A
C416        C697   1.470       .  S
C421        N422   1.352       .  A
C421        N426   1.355       .  A
C421        C673   1.462       .  S
N422        C423   1.354       .  A
C423        N424   1.358       .  A
N424        C425   1.359       .  A
C425        N426   1.358       .  A
C425        C709   1.483       .  S
C427        N428   1.357       .  A
C427        N432   1.357       .  A
C427        C829   1.474       .  S
N428        C429   1.356       .  A
C429        N430   1.353       .  A
C429        C721   1.479       .  S
N430        C431   1.354       .  A
C431        N432   1.358       .  A
C433        N434   1.355       .  A
C433        N438   1.356       .  A
C433       C1084   1.468       .  S
N434        C435   1.357       .  A
C435        N436   1.356       .  A
N436        C437   1.355       .  A
C437        N438   1.356       .  A
C437        C688   1.481       .  S
O439       Mg441   2.136       .  S
O439       Mg447   2.156       .  S
O439        C474   1.239       .  S
C440        O453   1.235       .  S
C440        O477   1.269       .  A
C440        H479   1.081       .  S
Mg441       O470   2.142       .  S
Mg441       O485   2.291       .  S
Mg441       O481   2.246       .  S
Mg441       O452   2.300       .  S
O442       Mg484   2.153       .  S
O442       Mg467   2.129       .  S
O442        C463   1.238       .  S
O443        C474   1.273       .  A
O443       Mg467   2.303       .  S
C444        C625   1.485       .  S
C444        O446   1.272       .  A
C444        O458   1.272       .  A
O445        C473   1.267       .  A
O445       Mg447   2.294       .  S
O446       Mg478   2.255       .  S
Mg447       O453   2.132       .  S
Mg447       O461   2.260       .  S
Mg447       O449   2.300       .  S
C448        C796   1.488       .  S
C448        O486   1.272       .  A
C448        O454   1.276       .  A
O449        C456   1.273       .  A
H450        C463   1.081       .  S
C451        O465   1.235       .  S
C451        O466   1.268       .  A
C451        H476   1.081       .  S
O452        C475   1.272       .  A
O453       Mg467   2.138       .  S
O454       Mg484   2.317       .  S
C455        C664   1.492       .  S
C455        O468   1.272       .  A
C455        O460   1.274       .  A
C456        C961   1.476       .  S
C456        O483   1.269       .  A
Mg457       O464   2.141       .  S
Mg457       O465   2.137       .  S
Mg457       O458   2.284       .  S
Mg457       O459   2.296       .  S
Mg457       O486   2.247       .  S
O459        C463   1.272       .  A
O460       Mg467   2.290       .  S
O461        C480   1.272       .  A
O462        C482   1.274       .  A
O462       Mg478   2.290       .  S
O464       Mg478   2.157       .  S
O464        C475   1.238       .  S
O465       Mg484   2.118       .  S
O466       Mg478   2.290       .  S
Mg467       O483   2.227       .  S
O468       Mg484   2.267       .  S
H469        C474   1.081       .  S
O470       Mg478   2.120       .  S
O470        C473   1.234       .  S
H471        C473   1.081       .  S
H472        C475   1.081       .  S
O477       Mg484   2.297       .  S
C480        C649   1.490       .  S
C480        O485   1.272       .  A
O481        C482   1.270       .  A
C482        C637   1.475       .  S
C487        N488   1.356       .  A
C487        N492   1.358       .  A
C487        C613   1.483       .  S
N488        C489   1.357       .  A
C489        N490   1.357       .  A
N490        C491   1.354       .  A
C491        N492   1.356       .  A
C491        C652   1.479       .  S
C493        N494   1.356       .  A
C493        N498   1.355       .  A
C493        C853   1.483       .  S
N494        C495   1.358       .  A
C495        N496   1.357       .  A
N496        C497   1.354       .  A
C497        N498   1.355       .  A
C497        C628   1.482       .  S
C499        N500   1.355       .  A
C499        N504   1.358       .  A
C499       C1021   1.469       .  S
N500        C501   1.356       .  A
C501        N502   1.358       .  A
N502        C503   1.357       .  A
C503        N504   1.358       .  A
C503        C661   1.481       .  S
O505       Mg507   2.120       .  S
O505       Mg513   2.138       .  S
O505        C540   1.233       .  S
C506        O519   1.237       .  S
C506        O543   1.271       .  A
C506        H545   1.081       .  S
Mg507       O536   2.149       .  S
Mg507       O551   2.272       .  S
Mg507       O547   2.246       .  S
Mg507       O518   2.293   1_545  S
O508       Mg550   2.146       .  S
O508       Mg533   2.119       .  S
O508        C529   1.235       .  S
O509        C540   1.266       .  A
O509       Mg533   2.283       .  S
C510        C616   1.473       .  S
C510        O512   1.270       .  A
C510        O524   1.269       .  A
O511        C539   1.275       .  A
O511       Mg513   2.313       .  S
O512       Mg544   2.274   1_565  S
Mg513       O519   2.141       .  S
Mg513       O527   2.267       .  S
Mg513       O515   2.329       .  S
C514        C604   1.479       .  S
C514        O552   1.267       .  A
C514        O520   1.271       .  A
O515        C522   1.278       .  A
H516        C529   1.081       .  S
C517        O531   1.238       .  S
C517        O532   1.275       .  A
C517        H542   1.082       .  S
O518        C541   1.268       .  A
O519       Mg533   2.150       .  S
O520       Mg550   2.294   1_565  S
C521        C877   1.468       .  S
C521        O534   1.270       .  A
C521        O526   1.273       .  A
C522        C589   1.492       .  S
C522        O549   1.271       .  A
Mg523       O530   2.120       .  S
Mg523       O531   2.144   1_565  S
Mg523       O524   2.267       .  S
Mg523       O525   2.294       .  S
Mg523       O552   2.232       .  S
O525        C529   1.268   1_565  A
O526       Mg533   2.277       .  S
O527        C546   1.272       .  A
O528        C548   1.276       .  A
O528       Mg544   2.329   1_565  S
O530       Mg544   2.131   1_565  S
O530        C541   1.235       .  S
O531       Mg550   2.153       .  S
O532       Mg544   2.323       .  S
Mg533       O549   2.243       .  S
O534       Mg550   2.263       .  S
H535        C540   1.081       .  S
O536       Mg544   2.148       .  S
O536        C539   1.240       .  S
H537        C539   1.081       .  S
H538        C541   1.081       .  S
O543       Mg550   2.300       .  S
C546        C676   1.473       .  S
C546        O551   1.272       .  A
O547        C548   1.271   1_545  A
C548        C577   1.492       .  S
C553        N554   1.355       .  A
C553        N558   1.356       .  A
C553        C640   1.465       .  S
N554        C555   1.356       .  A
C555        N556   1.357       .  A
N556        C557   1.354       .  A
C557        N558   1.357       .  A
C557        C601   1.473       .  S
C559        N560   1.350       .  A
C559        N564   1.352       .  A
C559        C916   1.465       .  S
N560        C561   1.355       .  A
C561        N562   1.365       .  A
C561        C575   1.462       .  S
N562        C563   1.363       .  A
C563        N564   1.356       .  A
C563        C592   1.486       .  S
C565        N566   1.355       .  A
C565        N570   1.352       .  A
C565        C700   1.472       .  S
N566        C567   1.359       .  A
C567        N568   1.366       .  A
N568        C569   1.362       .  A
C569        N570   1.354       .  A
C569        C580   1.484       .  S
C571        N572   1.357       .  A
C571        N576   1.358       .  A
N572        C573   1.358       .  A
C573        N574   1.355       .  A
N574        C575   1.354       .  A
C575        N576   1.361       .  A
C577        C578   1.405       .  A
C577        C582   1.419       .  A
C578        H583   1.085   1_565  S
C578        C579   1.396       .  A
C579        C580   1.413       .  A
C579        C586   1.446       .  S
C580        C581   1.405       .  A
C581        H584   1.085       .  S
C581        C582   1.408       .  A
C582        C585   1.444       .  S
C585        N587   1.158       .  T
C586        N588   1.157       .  T
C589        C590   1.409       .  A
C589        C594   1.417       .  A
C590        H595   1.083       .  S
C590        C591   1.405       .  A
C591        C592   1.412       .  A
C591        C598   1.443       .  S
C592        C593   1.405       .  A
C593        H596   1.085       .  S
C593        C594   1.397       .  A
C594        C597   1.446       .  S
C597        N599   1.158       .  T
C598        N600   1.157       .  T
C601        C602   1.403       .  A
C601        C606   1.409       .  A
C602        H607   1.085       .  S
C602        C603   1.399       .  A
C603        C604   1.416       .  A
C603        C610   1.445       .  S
C604        C605   1.406       .  A
C605        H608   1.085       .  S
C605        C606   1.396       .  A
C606        C609   1.445       .  S
C609        N611   1.157       .  T
C610        N612   1.158       .  T
C613        C614   1.403       .  A
C613        C618   1.418       .  A
C614        H619   1.085       .  S
C614        C615   1.391       .  A
C615        C616   1.412       .  A
C615        C622   1.447       .  S
C616        C617   1.402       .  A
C617        H620   1.085       .  S
C617        C618   1.405       .  A
C618        C621   1.444       .  S
C621        N623   1.157       .  T
C622        N624   1.157       .  T
C625        C626   1.408       .  A
C625        C630   1.417       .  A
C626        H631   1.085       .  S
C626        C627   1.401       .  A
C627        C628   1.414       .  A
C627        C634   1.444       .  S
C628        C629   1.403       .  A
C629        H632   1.085       .  S
C629        C630   1.393       .  A
C630        C633   1.444       .  S
C633        N635   1.157       .  T
C634        N636   1.157       .  T
C637        C638   1.405       .  A
C637        C642   1.416       .  A
C638        H643   1.085       .  S
C638        C639   1.400       .  A
C639        C640   1.408       .  A
C639        C646   1.444       .  S
C640        C641   1.398       .  A
C641        H644   1.085       .  S
C641        C642   1.396       .  A
C642        C645   1.445       .  S
C645        N647   1.157       .  T
C646        N648   1.157       .  T
C649        C650   1.408       .  A
C649        C654   1.419       .  A
C650        H655   1.084       .  S
C650        C651   1.400       .  A
C651        C652   1.412       .  A
C651        C658   1.444       .  S
C652        C653   1.402       .  A
C653        H656   1.085       .  S
C653        C654   1.397       .  A
C654        C657   1.445       .  S
C657        N659   1.157       .  T
C658        N660   1.157       .  T
C661        C662   1.403       .  A
C661        C666   1.411       .  A
C662        H667   1.085       .  S
C662        C663   1.401       .  A
C663        C664   1.417       .  A
C663        C670   1.444       .  S
C664        C665   1.410       .  A
C665        H668   1.085       .  S
C665        C666   1.399       .  A
C666        C669   1.445       .  S
C669        N671   1.158       .  T
C670        N672   1.157       .  T
C673        C674   1.399       .  A
C673        C678   1.407       .  A
C674        H679   1.085       .  S
C674        C675   1.400       .  A
C675        C676   1.414       .  A
C675        C682   1.443       .  S
C676        C677   1.404       .  A
C677        H680   1.085       .  S
C677        C678   1.395       .  A
C678        C681   1.445       .  S
C681        N683   1.157       .  T
C682        N684   1.157       .  T
C685        C686   1.407       .  A
C685        C690   1.418       .  A
C686        H691   1.085       .  S
C686        C687   1.397       .  A
C687        C688   1.413       .  A
C687        C694   1.445       .  S
C688        C689   1.404       .  A
C689        H692   1.085       .  S
C689        C690   1.399       .  A
C690        C693   1.445   1_556  S
C693        N695   1.158       .  T
C694        N696   1.157       .  T
C697        C698   1.401       .  A
C697        C702   1.410       .  A
C698        H703   1.085       .  S
C698        C699   1.395       .  A
C699        C700   1.411       .  A
C699        C706   1.445       .  S
C700        C701   1.404       .  A
C701        H704   1.085       .  S
C701        C702   1.401       .  A
C702        C705   1.444       .  S
C705        N707   1.157       .  T
C706        N708   1.157       .  T
C709        C710   1.406       .  A
C709        C714   1.413       .  A
C710        H715   1.085       .  S
C710        C711   1.402       .  A
C711        C712   1.416       .  A
C711        C718   1.445       .  S
C712        C713   1.406       .  A
C713        H716   1.085       .  S
C713        C714   1.396       .  A
C714        C717   1.445       .  S
C717        N719   1.157       .  T
C718        N720   1.157       .  T
C721        C722   1.403       .  A
C721        C726   1.412       .  A
C722        H727   1.084       .  S
C722        C723   1.398       .  A
C723        C724   1.417       .  A
C723        C730   1.445       .  S
C724        C725   1.408       .  A
C725        H728   1.082       .  S
C725        C726   1.397       .  A
C726        C729   1.445       .  S
C729        N731   1.158       .  T
C730        N732   1.157       .  T
C733        C734   1.405       .  A
C733        C738   1.417       .  A
C734        H739   1.085       .  S
C734        C735   1.401       .  A
C735        C736   1.415       .  A
C735        C742   1.444       .  S
C736        C737   1.403       .  A
C737        H740   1.085       .  S
C737        C738   1.395       .  A
C738        C741   1.446       .  S
C741        N743   1.157   1_655  T
C742        N744   1.157       .  T
C745        C746   1.404       .  A
C745        C750   1.410       .  A
C746        H751   1.085       .  S
C746        C747   1.400       .  A
C747        C748   1.419       .  A
C747        C754   1.445       .  S
C748        C749   1.409       .  A
C749        H752   1.084       .  S
C749        C750   1.398       .  A
C750        C753   1.444       .  S
C753        N755   1.157       .  T
C754        N756   1.158       .  T
C757        C758   1.406       .  A
C757        C762   1.419       .  A
C758        H763   1.084       .  S
C758        C759   1.395       .  A
C759        C760   1.416       .  A
C759        C766   1.446       .  S
C760        C761   1.405       .  A
C761        H764   1.085       .  S
C761        C762   1.402       .  A
C762        C765   1.444       .  S
C765        N767   1.158       .  T
C766        N768   1.158       .  T
C769        C770   1.404       .  A
C769        C774   1.413       .  A
C770        H775   1.085       .  S
C770        C771   1.403       .  A
C771        C772   1.412       .  A
C771        C778   1.443       .  S
C772        C773   1.404       .  A
C773        H776   1.085       .  S
C773        C774   1.400       .  A
C774        C777   1.445       .  S
C777        N779   1.157       .  T
C778        N780   1.157       .  T
C781        C782   1.402       .  A
C781        C786   1.413       .  A
C782        H787   1.085       .  S
C782        C783   1.394       .  A
C783        C784   1.411       .  A
C783        C790   1.446       .  S
C784        C785   1.402       .  A
C785        H788   1.085       .  S
C785        C786   1.401       .  A
C786        C789   1.444       .  S
C789        N791   1.157       .  T
C790        N792   1.157       .  T
C793        C794   1.403       .  A
C793        C798   1.407       .  A
C794        H799   1.085       .  S
C794        C795   1.406       .  A
C795        C796   1.417       .  A
C795        C802   1.444       .  S
C796        C797   1.407       .  A
C797        H800   1.083       .  S
C797        C798   1.394       .  A
C798        C801   1.445       .  S
C801        N803   1.157       .  T
C802        N804   1.157       .  T
C805        C806   1.410       .  A
C805        C810   1.418       .  A
C806        H811   1.085       .  S
C806        C807   1.393       .  A
C807        C808   1.404       .  A
C807        C814   1.445       .  S
C808        C809   1.401       .  A
C809        H812   1.085       .  S
C809        C810   1.402       .  A
C810        C813   1.444       .  S
C813        N815   1.157       .  T
C814        N816   1.157       .  T
C817        C818   1.406       .  A
C817        C822   1.417       .  A
C818        H823   1.085   1_556  S
C818        C819   1.394       .  A
C819        C820   1.409       .  A
C819        C826   1.446       .  S
C820        C821   1.403       .  A
C821        H824   1.085       .  S
C821        C822   1.405       .  A
C822        C825   1.444       .  S
C825        N827   1.158       .  T
C826        N828   1.157       .  T
C829        C830   1.404       .  A
C829        C834   1.408       .  A
C830        H835   1.085       .  S
C830        C831   1.405       .  A
C831        C832   1.418       .  A
C831        C838   1.443       .  S
C832        C833   1.410       .  A
C833        H836   1.084       .  S
C833        C834   1.392       .  A
C834        C837   1.446       .  S
C837        N839   1.157       .  T
C838        N840   1.157       .  T
C841        C842   1.402       .  A
C841        C846   1.412       .  A
C842        H847   1.085       .  S
C842        C843   1.404       .  A
C843        C844   1.417       .  A
C843        C850   1.445       .  S
C844        C845   1.403       .  A
C845        H848   1.085       .  S
C845        C846   1.394       .  A
C846        C849   1.446       .  S
C849        N851   1.157       .  T
C850        N852   1.158       .  T
C853        C854   1.405       .  A
C853        C858   1.417       .  A
C854        H859   1.085       .  S
C854        C855   1.390       .  A
C855        C856   1.410       .  A
C855        C862   1.447       .  S
C856        C857   1.402       .  A
C857        H860   1.085       .  S
C857        C858   1.403       .  A
C858        C861   1.443       .  S
C861        N863   1.157       .  T
C862        N864   1.157       .  T
C865        C866   1.401       .  A
C865        C870   1.411       .  A
C866        H871   1.085       .  S
C866        C867   1.395       .  A
C867        C868   1.415       .  A
C867        C874   1.445       .  S
C868        C869   1.406       .  A
C869        H872   1.085       .  S
C869        C870   1.400       .  A
C870        C873   1.444       .  S
C873        N875   1.157       .  T
C874        N876   1.157       .  T
C877        C878   1.398       .  A
C877        C882   1.408       .  A
C878        H883   1.085       .  S
C878        C879   1.405       .  A
C879        C880   1.424       .  A
C879        C886   1.443       .  S
C880        C881   1.406       .  A
C881        H884   1.084       .  S
C881        C882   1.392       .  A
C882        C885   1.446       .  S
C885        N887   1.157       .  T
C886        N888   1.157       .  T
C889        C890   1.406       .  A
C889        C894   1.416       .  A
C890        H895   1.085       .  S
C890        C891   1.395       .  A
C891        C892   1.412       .  A
C891        C898   1.445       .  S
C892        C893   1.404       .  A
C893        H896   1.085       .  S
C893        C894   1.400       .  A
C894        C897   1.445       .  S
C897        N899   1.157       .  T
C898        N900   1.157       .  T
C901        C902   1.405       .  A
C901        C906   1.418       .  A
C902        H907   1.085       .  S
C902        C903   1.396       .  A
C903        C904   1.413       .  A
C903        C910   1.445       .  S
C904        C905   1.403       .  A
C905        H908   1.085       .  S
C905        C906   1.399       .  A
C906        C909   1.445       .  S
C909        N911   1.157   1_565  T
C910        N912   1.157       .  T
C913        C914   1.401       .  A
C913        C918   1.412       .  A
C914        H919   1.085       .  S
C914        C915   1.399       .  A
C915        C916   1.412       .  A
C915        C922   1.444       .  S
C916        C917   1.399       .  A
C917        H920   1.085       .  S
C917        C918   1.392       .  A
C918        C921   1.446       .  S
C921        N923   1.157       .  T
C922        N924   1.157       .  T
C925        C926   1.405       .  A
C925        C930   1.416       .  A
C926        H931   1.085       .  S
C926        C927   1.399       .  A
C927        C928   1.416       .  A
C927        C934   1.444       .  S
C928        C929   1.405       .  A
C929        H932   1.085       .  S
C929        C930   1.396       .  A
C930        C933   1.446       .  S
C933        N935   1.158       .  T
C934        N936   1.157       .  T
C937        C938   1.408       .  A
C937        C942   1.414       .  A
C938        H943   1.084       .  S
C938        C939   1.396       .  A
C939        C940   1.404       .  A
C939        C946   1.444       .  S
C940        C941   1.399       .  A
C941        H944   1.085       .  S
C941        C942   1.396       .  A
C942        C945   1.444       .  S
C945        N947   1.157       .  T
C946        N948   1.157       .  T
C949        C950   1.401       .  A
C949        C954   1.405       .  A
C950        H955   1.085       .  S
C950        C951   1.403       .  A
C951        C952   1.417       .  A
C951        C958   1.443       .  S
C952        C953   1.410       .  A
C953        H956   1.084       .  S
C953        C954   1.395       .  A
C954        C957   1.446       .  S
C957        N959   1.157       .  T
C958        N960   1.157       .  T
C961        C962   1.404       .  A
C961        C966   1.413       .  A
C962        H967   1.085       .  S
C962        C963   1.392       .  A
C963        C964   1.410       .  A
C963        C970   1.446       .  S
C964        C965   1.403       .  A
C965        H968   1.085       .  S
C965        C966   1.402       .  A
C966        C969   1.444       .  S
C969        N971   1.157       .  T
C970        N972   1.157       .  T
C973        C974   1.400       .  A
C973        C978   1.407       .  A
C974        H979   1.085       .  S
C974        C975   1.397       .  A
C975        C976   1.411       .  A
C975        C982   1.444       .  S
C976        C977   1.405       .  A
C977        H980   1.085       .  S
C977        C978   1.400       .  A
C978        C981   1.444       .  S
C981        N983   1.157       .  T
C982        N984   1.157       .  T
C985        C986   1.408       .  A
C985        C990   1.414       .  A
C986        H991   1.085       .  S
C986        C987   1.403       .  A
C987        C988   1.409       .  A
C987        C994   1.444       .  S
C988        C989   1.402       .  A
C989        H992   1.085       .  S
C989        C990   1.397       .  A
C990        C993   1.445   1_655  S
C993        N995   1.157       .  T
C994        N996   1.157       .  T
C997        C998   1.407       .  A
C997       C1002   1.418       .  A
C998       H1003   1.084       .  S
C998        C999   1.390       .  A
C999       C1000   1.408       .  A
C999       C1006   1.446       .  S
C1000      C1001   1.404       .  A
C1001      H1004   1.085       .  S
C1001      C1002   1.405       .  A
C1002      C1005   1.444       .  S
C1005      N1007   1.157       .  T
C1006      N1008   1.157       .  T
C1009      C1010   1.404       .  A
C1009      C1014   1.413       .  A
C1010      H1015   1.085       .  S
C1010      C1011   1.398       .  A
C1011      C1012   1.411       .  A
C1011      C1018   1.445       .  S
C1012      C1013   1.400       .  A
C1013      H1016   1.085       .  S
C1013      C1014   1.396       .  A
C1014      C1017   1.444       .  S
C1017      N1019   1.157       .  T
C1018      N1020   1.157       .  T
C1021      C1022   1.403       .  A
C1021      C1026   1.410       .  A
C1022      H1027   1.085       .  S
C1022      C1023   1.398       .  A
C1023      C1024   1.408       .  A
C1023      C1030   1.444       .  S
C1024      C1025   1.401       .  A
C1025      H1028   1.085       .  S
C1025      C1026   1.397       .  A
C1026      C1029   1.444       .  S
C1029      N1031   1.157       .  T
C1030      N1032   1.157       .  T
C1033      C1034   1.406       .  A
C1033      C1038   1.411       .  A
C1034      H1039   1.085       .  S
C1034      C1035   1.401       .  A
C1035      C1036   1.409       .  A
C1035      C1042   1.444       .  S
C1036      C1037   1.402       .  A
C1037      H1040   1.084       .  S
C1037      C1038   1.397       .  A
C1038      C1041   1.445       .  S
C1041      N1043   1.157       .  T
C1042      N1044   1.157       .  T
C1045      C1046   1.406       .  A
C1045      C1050   1.419       .  A
C1046      H1051   1.085       .  S
C1046      C1047   1.397       .  A
C1047      C1048   1.405       .  A
C1047      C1054   1.444       .  S
C1048      C1049   1.393       .  A
C1049      H1052   1.086       .  S
C1049      C1050   1.393       .  A
C1050      C1053   1.443       .  S
C1053      N1055   1.156   1_565  T
C1054      N1056   1.157       .  T
C1057      C1058   1.403       .  A
C1057      C1062   1.415       .  A
C1058      H1063   1.085       .  S
C1058      C1059   1.400       .  A
C1059      C1060   1.411       .  A
C1059      C1066   1.444       .  S
C1060      C1061   1.399       .  A
C1061      H1064   1.085       .  S
C1061      C1062   1.395       .  A
C1062      C1065   1.446       .  S
C1065      N1067   1.158   1_655  T
C1066      N1068   1.157       .  T
C1069      C1070   1.405       .  A
C1069      C1074   1.419       .  A
C1070      H1075   1.085       .  S
C1070      C1071   1.394       .  A
C1071      C1072   1.409       .  A
C1071      C1078   1.445       .  S
C1072      C1073   1.403       .  A
C1073      H1076   1.085       .  S
C1073      C1074   1.407       .  A
C1074      C1077   1.444       .  S
C1077      N1079   1.158       .  T
C1078      N1080   1.157       .  T
C1081      C1082   1.410       .  A
C1081      C1086   1.418       .  A
C1082      H1087   1.085       .  S
C1082      C1083   1.391       .  A
C1083      C1084   1.405       .  A
C1083      C1090   1.446       .  S
C1084      C1085   1.402       .  A
C1085      H1088   1.085       .  S
C1085      C1086   1.404       .  A
C1086      C1089   1.443       .  S
C1089      N1091   1.157   1_565  T
C1090      N1092   1.157       .  T
C1093      C1094   1.402       .  A
C1093      C1098   1.411       .  A
C1094      H1099   1.085       .  S
C1094      C1095   1.398       .  A
C1095      C1096   1.416       .  A
C1095      C1102   1.444       .  S
C1096      C1097   1.406       .  A
C1097      H1100   1.085       .  S
C1097      C1098   1.394       .  A
C1098      C1101   1.446       .  S
C1101      N1103   1.158       .  T
C1102      N1104   1.157       .  T
C1105      C1106   1.402       .  A
C1105      C1110   1.409       .  A
C1106      H1111   1.085   1_556  S
C1106      C1107   1.398       .  A
C1107      C1108   1.410       .  A
C1107      C1114   1.444       .  S
C1108      C1109   1.403       .  A
C1109      H1112   1.085       .  S
C1109      C1110   1.398       .  A
C1110      C1113   1.445       .  S
C1113      N1115   1.157       .  T
C1114      N1116   1.157       .  T
C1117      C1118   1.404       .  A
C1117      C1122   1.412       .  A
C1118      H1123   1.084       .  S
C1118      C1119   1.396       .  A
C1119      C1120   1.415       .  A
C1119      C1126   1.446       .  S
C1120      C1121   1.410       .  A
C1121      H1124   1.084       .  S
C1121      C1122   1.406       .  A
C1122      C1125   1.443       .  S
C1125      N1127   1.157       .  T
C1126      N1128   1.158       .  T
C1129      C1130   1.402       .  A
C1129      C1134   1.409       .  A
C1130      H1135   1.084   1_655  S
C1130      C1131   1.399       .  A
C1131      C1132   1.410       .  A
C1131      C1138   1.444       .  S
C1132      C1133   1.403       .  A
C1133      H1136   1.085       .  S
C1133      C1134   1.399       .  A
C1134      C1137   1.444       .  S
C1137      N1139   1.157       .  T
C1138      N1140   1.157       .  T
C1141      C1142   1.402       .  A
C1141      C1146   1.409       .  A
C1142      H1147   1.085       .  S
C1142      C1143   1.397       .  A
C1143      C1144   1.414       .  A
C1143      C1150   1.445       .  S
C1144      C1145   1.406       .  A
C1145      H1148   1.085       .  S
C1145      C1146   1.400       .  A
C1146      C1149   1.444       .  S
C1149      N1151   1.157       .  T
C1150      N1152   1.158       .  T
