geometry optimzed in LAMMPS
_audit_creation_date              2020-11-30 
_audit_creation_method            'lammps2cif' 
_symmetry_space_group_name_H-M    'P1' 
_symmetry_Int_Tables_number       1 
_symmetry_cell_setting            triclinic 
loop_ 
_symmetry_equiv_pos_as_xyz 
  x,y,z 
_cell_length_a                    38.33819377218846 
_cell_length_b                    45.206387242733804 
_cell_length_c                    49.92259512697655 
_cell_angle_alpha                 90.34930736585036 
_cell_angle_beta                  98.94099825780724 
_cell_angle_gamma                 89.77201552914727 
loop_ 
_atom_site_label 
_atom_site_type_symbol 
_atom_site_fract_x 
_atom_site_fract_y 
_atom_site_fract_z 
_atom_site_charge 
N1          N  0.31362900  0.54898885  0.52682514    -0.27090
N2          N  0.33051713  0.52414267  0.52293929    -0.34950
C3          C  0.30876349  0.50112668  0.52428080     0.01250
C4          C  0.27668281  0.51197255  0.52937050     0.07280
C5          C  0.28062050  0.54239590  0.53076766    -0.05820
H6          H  0.31619446  0.47816413  0.52255625     0.07940
H7          H  0.26130214  0.55851929  0.53510266     0.09140
Cu8        Cu  0.38346336  0.52199504  0.51927133     0.44170
Cu9        Cu  0.33721332  0.59044804  0.52923576     0.41990
Cu10       Cu  0.43199945  0.59003624  0.52936316     0.43880
N11         N  0.43786748  0.52420691  0.52300470    -0.34470
N12         N  0.45577487  0.54917948  0.52694851    -0.28730
C13         C  0.49052365  0.54299462  0.53097440    -0.04830
C14         C  0.49457468  0.51264818  0.52957087     0.07390
C15         C  0.46069317  0.50142914  0.52439415     0.01180
H16         H  0.01119660  0.55932594  0.53540205     0.08830
H17         H  0.45310610  0.47839122  0.52265801     0.07910
N18         N  0.40314880  0.62758067  0.53537051    -0.35920
N19         N  0.36868828  0.62795362  0.53536757    -0.28100
C20         C  0.35895586  0.65532838  0.54204033    -0.03340
C21         C  0.38883947  0.67303740  0.54669191     0.05270
C22         C  0.41624392  0.65458571  0.54203996     0.03360
H23         H  0.33214324  0.66149670  0.54377928     0.08470
H24         H  0.44404382  0.65993357  0.54461036     0.07300
N25         N  0.46922601  0.90830002  0.68193551    -0.27090
N26         N  0.45643085  0.88165952  0.68512890    -0.34950
C27         C  0.46223961  0.87485268  0.71161240     0.01250
C28         C  0.47944064  0.89835354  0.72592369     0.07280
C29         C  0.48346485  0.91912355  0.70632829    -0.05820
H30         H  0.45601712  0.85364037  0.71953393     0.07940
H31         H  0.49656307  0.94029475  0.70941642     0.09140
Cu32       Cu  0.43493127  0.85402769  0.65351593     0.44170
Cu33       Cu  0.47008272  0.92783435  0.64457089     0.41990
Cu34       Cu  0.44023358  0.88144144  0.58681284     0.43880
N35         N  0.42128843  0.82904300  0.61846635    -0.34470
N36         N  0.42437399  0.83906021  0.59413199    -0.28730
C37         C  0.41763614  0.81702469  0.57593141    -0.04830
C38         C  0.40960525  0.79195526  0.58939321     0.07390
C39         C  0.41193611  0.80034788  0.61632111     0.01180
H40         H  0.41932385  0.81895199  0.55458013     0.08830
H41         H  0.40901526  0.78625082  0.63326275     0.07910
N42         N  0.46047588  0.92332192  0.58380292    -0.35920
N43         N  0.47159618  0.94043670  0.60490571    -0.28100
C44         C  0.48562842  0.96515262  0.59622087    -0.03340
C45         C  0.48319757  0.96351183  0.56821612     0.05270
C46         C  0.46705589  0.93661625  0.56114885     0.03360
H47         H  0.49825648  0.98220660  0.60955127     0.08470
H48         H  0.46126212  0.92697814  0.54107128     0.07300
N49         N  0.20827674  0.45789754  0.53594176    -0.27090
N50         N  0.19167185  0.48281282  0.54011757    -0.34950
C51         C  0.21362538  0.50570428  0.53892567     0.01250
C52         C  0.24555615  0.49474789  0.53364897     0.07280
C53         C  0.24133677  0.46435360  0.53198620    -0.05820
H54         H  0.20641188  0.52868714  0.54087628     0.07940
H55         H  0.26047505  0.44818089  0.52742748     0.09140
Cu56       Cu  0.13881842  0.48555840  0.54398019     0.44170
Cu57       Cu  0.18424583  0.41656379  0.53320143     0.41990
Cu58       Cu  0.08971017  0.41812762  0.53391155     0.43880
N59         N  0.08439435  0.48394022  0.54040401    -0.34470
N60         N  0.06630849  0.45906418  0.53647963    -0.28730
C61         C  0.03161885  0.46539204  0.53253458    -0.04830
C62         C  0.02774941  0.49574632  0.53396181     0.07390
C63         C  0.06171142  0.50683526  0.53907665     0.01180
H64         H  0.01085365  0.44914015  0.52812168     0.08830
H65         H  0.06943093  0.52984372  0.54078990     0.07910
N66         N  0.11774660  0.38018536  0.52789549    -0.35920
N67         N  0.15212150  0.37935667  0.52751866    -0.28100
C68         C  0.16119291  0.35173811  0.52102381    -0.03340
C69         C  0.13105752  0.33432471  0.51718210     0.05270
C70         C  0.10405572  0.35327379  0.52167344     0.03360
H71         H  0.18765539  0.34505777  0.51861581     0.08470
H72         H  0.07613991  0.34849364  0.51917688     0.07300
N73         N  0.05525513  0.09866934  0.38233259    -0.27090
N74         N  0.06679608  0.12578988  0.37947823    -0.34950
C75         C  0.06040756  0.13309529  0.35314151     0.01250
C76         C  0.04430198  0.10934952  0.33840642     0.07280
C77         C  0.04147859  0.08793559  0.35778688    -0.05820
H78         H  0.06562701  0.15477994  0.34576729     0.07940
H79         H  0.02945807  0.06635530  0.35450468     0.09140
Cu80       Cu  0.08812153  0.15319411  0.41126868     0.44170
Cu81       Cu  0.05500172  0.07867145  0.41960982     0.41990
Cu82       Cu  0.08422441  0.12537669  0.47776125     0.43880
N83         N  0.10307520  0.17784501  0.44630300    -0.34470
N84         N  0.10048470  0.16771755  0.47068297    -0.28730
C85         C  0.10774708  0.18965466  0.48893579    -0.04830
C86         C  0.11582037  0.21472232  0.47546519     0.07390
C87         C  0.11266015  0.20647584  0.44844673     0.01180
H88         H  0.10610909  0.18775249  0.51029798     0.08830
H89         H  0.11488581  0.22069476  0.43144370     0.07910
N90         N  0.06381059  0.08348669  0.48044331    -0.35920
N91         N  0.05299297  0.06631425  0.45930810    -0.28100
C92         C  0.03876541  0.04164390  0.46791504    -0.03340
C93         C  0.04076451  0.04336158  0.49588799     0.05270
C94         C  0.05685610  0.07025804  0.50302002     0.03360
H95         H  0.02631655  0.02456002  0.45453256     0.08470
H96         H  0.06239972  0.07993831  0.52309282     0.07300
N97         N  0.20830701  0.54897885  0.03695964    -0.27090
N98         N  0.19155576  0.52414003  0.04058322    -0.34950
C99         C  0.21344565  0.50109987  0.03906624     0.01250
C100        C  0.24548534  0.51187192  0.03413782     0.07280
C101        C  0.24138828  0.54231233  0.03301380    -0.05820
H102        H  0.20613052  0.47815361  0.04058130     0.07940
H103        H  0.26065834  0.55839095  0.02887956     0.09140
Cu104      Cu  0.13863406  0.52169999  0.04419286     0.44170
Cu105      Cu  0.18453486  0.59057373  0.03503070     0.41990
Cu106      Cu  0.08955118  0.58918986  0.03431279     0.43880
N107        N  0.08419375  0.52344529  0.04047211    -0.34470
N108        N  0.06600022  0.54833853  0.03656872    -0.28730
C109        C  0.03131993  0.54203949  0.03263133    -0.04830
C110        C  0.02760284  0.51168647  0.03405147     0.07390
C111        C  0.06163952  0.50059542  0.03913884     0.01180
H112        H  0.01045129  0.55829341  0.02829724     0.08830
H113        H  0.06950246  0.47759264  0.04088992     0.07910
N114        N  0.11781699  0.62706721  0.02898639    -0.35920
N115        N  0.15239334  0.62796174  0.02953235    -0.28100
C116        C  0.16150787  0.65551704  0.02319954    -0.03340
C117        C  0.13112251  0.67263787  0.01822620     0.05270
C118        C  0.10403115  0.65380483  0.02211058     0.03360
H119        H  0.18790768  0.66199992  0.02063537     0.08470
H120        H  0.07608605  0.65883296  0.01911480     0.07300
N121        N  0.05444617  0.90866629  0.88273616    -0.27090
N122        N  0.06118370  0.88026878  0.87950807    -0.34950
C123        C  0.05292020  0.87310265  0.85314173     0.01250
C124        C  0.04091916  0.89826519  0.83906039     0.07280
C125        C  0.04216512  0.92044913  0.85836735    -0.05820
H126        H  0.05444100  0.85100179  0.84495389     0.07940
H127        H  0.03279781  0.94295298  0.85518367     0.09140
Cu128      Cu  0.07905479  0.85188925  0.91107488     0.44170
Cu129      Cu  0.05727234  0.92852921  0.92058152     0.41990
Cu130      Cu  0.09141687  0.88213957  0.97854396     0.43880
N131        N  0.09691190  0.82727736  0.94531386    -0.34470
N132        N  0.10275078  0.83850648  0.97010105    -0.28730
C133        C  0.11261323  0.81659315  0.98784121    -0.04830
C134        C  0.11247679  0.79029485  0.97348725     0.07390
C135        C  0.10251091  0.79793286  0.94658846     0.01180
H136        H  0.11738118  0.81931423  0.00964980     0.08830
H137        H  0.09869371  0.78317574  0.92924929     0.07910
N138        N  0.06880667  0.92351688  0.98165101    -0.35920
N139        N  0.05614186  0.94021099  0.96071119    -0.28100
C140        C  0.04022697  0.96403587  0.96969982    -0.03340
C141        C  0.04269624  0.96224282  0.99766145     0.05270
C142        C  0.06133544  0.93630219  0.00447402     0.03360
H143        H  0.02645421  0.98074215  0.95663840     0.08470
H144        H  0.06857767  0.92691854  0.02442156     0.07300
N145        N  0.31386915  0.45739656  0.02698548    -0.27090
N146        N  0.33060477  0.48223338  0.02332492    -0.34950
C147        C  0.30870579  0.50527196  0.02482070     0.01250
C148        C  0.27667561  0.49450153  0.02977142     0.07280
C149        C  0.28078769  0.46406365  0.03093065    -0.05820
H150        H  0.31600927  0.52821724  0.02327715     0.07940
H151        H  0.26153064  0.44798857  0.03509569     0.09140
Cu152      Cu  0.38351922  0.48468377  0.01969480     0.44170
Cu153      Cu  0.33766134  0.41580466  0.02898161     0.41990
Cu154      Cu  0.43261662  0.41720453  0.02961787     0.43880
N155        N  0.43795761  0.48294467  0.02339448    -0.34470
N156        N  0.45615458  0.45805407  0.02730837    -0.28730
C157        C  0.49083366  0.46435580  0.03123489    -0.04830
C158        C  0.49454727  0.49470761  0.02979785     0.07390
C159        C  0.46050900  0.50579574  0.02471082     0.01180
H160        H  0.01170426  0.44810536  0.03558076     0.08830
H161        H  0.45264359  0.52879767  0.02295355     0.07910
N162        N  0.40439372  0.37933079  0.03504610    -0.35920
N163        N  0.36982494  0.37842859  0.03453907    -0.28100
C164        C  0.36074310  0.35088435  0.04093536    -0.03340
C165        C  0.39114328  0.33377792  0.04590875     0.05270
C166        C  0.41820695  0.35261047  0.04195647     0.03360
H167        H  0.33435559  0.34440054  0.04353202     0.08470
H168        H  0.44615409  0.34759337  0.04492042     0.07300
N169        N  0.46796327  0.09761224  0.18146114    -0.27090
N170        N  0.46159581  0.12609726  0.18453007    -0.34950
C171        C  0.47034560  0.13348408  0.21079481     0.01250
C172        C  0.48236570  0.10840369  0.22503391     0.07280
C173        C  0.48047435  0.08599125  0.20586741    -0.05820
H174        H  0.46914073  0.15569453  0.21880768     0.07940
H175        H  0.48966648  0.06344967  0.20913443     0.09140
Cu176      Cu  0.44368627  0.15439998  0.15291602     0.44170
Cu177      Cu  0.46459028  0.07754469  0.14365596     0.41990
Cu178      Cu  0.43074971  0.12417940  0.08558997     0.43880
N179        N  0.42571293  0.17910493  0.11876511    -0.34470
N180        N  0.41964054  0.16787366  0.09398807    -0.28730
C181        C  0.40970926  0.18979875  0.07627332    -0.04830
C182        C  0.41004620  0.21610981  0.09063676     0.07390
C183        C  0.42020412  0.20846238  0.11751505     0.01180
H184        H  0.40473461  0.18707114  0.05446815     0.08830
H185        H  0.42418304  0.22321564  0.13485432     0.07910
N186        N  0.45326023  0.08274459  0.08255796    -0.35920
N187        N  0.46577377  0.06598349  0.10349279    -0.28100
C188        C  0.48171834  0.04217132  0.09450973    -0.03340
C189        C  0.47942900  0.04403709  0.06656421     0.05270
C190        C  0.46085767  0.07000875  0.05975142     0.03360
H191        H  0.49540833  0.02542995  0.10757544     0.08470
H192        H  0.45375336  0.07945594  0.03981730     0.07300
C193        C  0.39513658  0.30352531  0.05718392    -0.05260
C194        C  0.42433200  0.29709617  0.07697827    -0.32690
C195        C  0.42905545  0.26889486  0.08832511     0.36560
C196        C  0.40488625  0.24623162  0.07939573    -0.05620
C197        C  0.37598566  0.25239458  0.05925863    -0.32590
C198        C  0.37063629  0.28096552  0.04849427     0.36460
H199        H  0.44345848  0.31411718  0.08398277     0.16830
O200        O  0.45838477  0.26331140  0.10713586    -0.60090
H201        H  0.35729831  0.23509739  0.05209257     0.16850
O202        O  0.34235070  0.28624897  0.02865755    -0.60190
H203        H  0.32173546  0.28818735  0.03834090     0.43840
H204        H  0.45316942  0.27217753  0.12430441     0.43800
C205        C  0.02687059  0.98294261  0.01570687    -0.05260
C206        C  0.02119640  0.01258909  0.00792332    -0.32690
C207        C  0.50561002  0.03269274  0.02399146     0.36560
C208        C  0.49533275  0.02336019  0.04853976    -0.05620
C209        C  0.00102380  0.99371542  0.05632669    -0.32590
C210        C  0.01662133  0.97361629  0.04026386     0.36460
H211        H  0.02931701  0.02046915  0.98940521     0.16830
O212        O  0.50225600  0.06168509  0.01607250    -0.60090
H213        H  0.49289663  0.98582633  0.07483875     0.16850
O214        O  0.01999808  0.94462715  0.04818970    -0.60190
H215        H  0.03999603  0.94428863  0.06340753     0.43840
H216        H  0.48228246  0.06203288  0.00083592     0.43800
C217        C  0.12717524  0.70289496  0.00696985    -0.05260
C218        C  0.09807434  0.70932490  0.98709201    -0.32690
C219        C  0.09342201  0.73752476  0.97573761     0.36560
C220        C  0.11756463  0.76018112  0.98474301    -0.05620
C221        C  0.14635901  0.75402151  0.00497201    -0.32590
C222        C  0.15164165  0.72545151  0.01574609     0.36460
H223        H  0.07897501  0.69230408  0.98002519     0.16830
O224        O  0.06418600  0.74311372  0.95683740    -0.60090
H225        H  0.16501711  0.77131862  0.01219986     0.16850
O226        O  0.17982522  0.72016279  0.03566958    -0.60190
H227        H  0.20051338  0.71821885  0.02606731     0.43840
H228        H  0.06951246  0.73425974  0.93969613     0.43800
C229        C  0.49900556  0.10729003  0.25365530    -0.05260
C230        C  0.02586760  0.12739239  0.26302190    -0.32690
C231        C  0.04161949  0.12776519  0.29024710     0.36560
C232        C  0.02992961  0.10814557  0.30891373    -0.05620
C233        C  0.00338200  0.08753743  0.29919252    -0.32590
C234        C  0.48810112  0.08694365  0.27179685     0.36460
H235        H  0.03501744  0.14273167  0.24904279     0.16830
O236        O  0.06940441  0.14654433  0.29800207    -0.60090
H237        H  0.49371295  0.07221111  0.31287265     0.16850
O238        O  0.46189180  0.06694831  0.26312317    -0.60190
H239        H  0.43956397  0.07721221  0.26524580     0.43840
H240        H  0.05897153  0.16670007  0.29722463     0.43800
C241        C  0.12089271  0.24483946  0.48684338    -0.05260
C242        C  0.09781973  0.25558412  0.50383495    -0.32690
C243        C  0.10075991  0.28458406  0.51388916     0.36560
C244        C  0.12778132  0.30318930  0.50751393    -0.05620
C245        C  0.15152141  0.29198737  0.49110095    -0.32590
C246        C  0.14808715  0.26313476  0.48067274     0.36460
H247        H  0.07687389  0.24164038  0.50887890     0.16830
O248        O  0.07780973  0.29410327  0.53065735    -0.60090
H249        H  0.17241715  0.30579023  0.48582113     0.16850
O250        O  0.17159037  0.25296428  0.46463458    -0.60190
H251        H  0.19062785  0.24317122  0.47725889     0.43840
H252        H  0.05478145  0.29671911  0.51873152     0.43800
C253        C  0.49772516  0.98426006  0.54987430    -0.05260
C254        C  0.00878246  0.97329921  0.52614823    -0.32690
C255        C  0.02276698  0.99213071  0.50837014     0.36480
C256        C  0.02605005  0.02263236  0.51415666    -0.05620
C257        C  0.01494442  0.03359750  0.53786828    -0.32590
C258        C  0.00097434  0.01476199  0.55565210     0.36460
H259        H  0.50724055  0.94987291  0.52148766     0.16830
O260        O  0.03472125  0.98019411  0.48614565    -0.60090
H261        H  0.01648759  0.05702121  0.54253659     0.16850
O262        O  0.48903735  0.02668227  0.57789232    -0.60190
H263        H  0.01059505  0.03176541  0.59077720     0.43840
H264        H  0.01316997  0.97515691  0.47323531     0.43800
C265        C  0.49384581  0.89962893  0.75528719    -0.05260
C266        C  0.02392234  0.91686239  0.76438384    -0.32690
C267        C  0.03923643  0.91698972  0.79176141     0.36560
C268        C  0.02460164  0.89967814  0.81043915    -0.05620
C269        C  0.49431959  0.88292800  0.80162327    -0.32590
C270        C  0.47858442  0.88316274  0.77441811     0.36460
H271        H  0.03625175  0.92966741  0.75019038     0.16830
O272        O  0.06900443  0.93345618  0.79993685    -0.60090
H273        H  0.48260113  0.86983416  0.81599810     0.16850
O274        O  0.44808051  0.86745461  0.76692740    -0.60190
H275        H  0.42870032  0.88188223  0.76770280     0.43840
H276        H  0.08904006  0.92001139  0.79817469     0.43800
C277        C  0.39231417  0.70410792  0.55663318    -0.05260
C278        C  0.42097434  0.72106126  0.55103035    -0.32690
C279        C  0.42671959  0.74967490  0.56149563     0.36560
C280        C  0.40366039  0.76195659  0.57791504    -0.05620
C281        C  0.37501159  0.74526833  0.58359025    -0.32590
C282        C  0.36889814  0.71670761  0.57280838     0.36460
H283        H  0.43925971  0.71209043  0.53857889     0.16830
O284        O  0.45558106  0.76512378  0.55618016    -0.60090
H285        H  0.35717152  0.75448494  0.59631324     0.16850
O286        O  0.34101232  0.70091546  0.57938403    -0.60190
H287        H  0.31987660  0.70890200  0.56762044     0.43840
H288        H  0.47454045  0.76070660  0.57154373     0.43800
N289        N  0.81362899  0.54898885  0.52682514    -0.27090
N290        N  0.83051713  0.52414268  0.52293928    -0.34950
C291        C  0.80876349  0.50112668  0.52428079     0.01250
C292        C  0.77668281  0.51197255  0.52937050     0.07280
C293        C  0.78062050  0.54239591  0.53076766    -0.05820
H294        H  0.81619446  0.47816413  0.52255625     0.07940
H295        H  0.76130214  0.55851929  0.53510266     0.09140
Cu296      Cu  0.88346336  0.52199505  0.51927132     0.44170
Cu297      Cu  0.83721331  0.59044804  0.52923575     0.41990
Cu298      Cu  0.93199944  0.59003625  0.52936317     0.43880
N299        N  0.93786748  0.52420692  0.52300470    -0.34470
N300        N  0.95577486  0.54917949  0.52694851    -0.28730
C301        C  0.99052364  0.54299462  0.53097441    -0.04830
C302        C  0.99457467  0.51264819  0.52957087     0.07390
C303        C  0.96069317  0.50142915  0.52439414     0.01180
H304        H  0.51119661  0.55932594  0.53540204     0.08830
H305        H  0.95310610  0.47839123  0.52265800     0.07910
N306        N  0.90314879  0.62758068  0.53537051    -0.35920
N307        N  0.86868827  0.62795362  0.53536757    -0.28100
C308        C  0.85895584  0.65532838  0.54204033    -0.03340
C309        C  0.88883945  0.67303740  0.54669191     0.05270
C310        C  0.91624391  0.65458571  0.54203997     0.03360
H311        H  0.83214322  0.66149670  0.54377927     0.08470
H312        H  0.94404381  0.65993358  0.54461036     0.07300
N313        N  0.96922601  0.90830002  0.68193552    -0.27090
N314        N  0.95643086  0.88165951  0.68512890    -0.34950
C315        C  0.96223962  0.87485268  0.71161240     0.01250
C316        C  0.97944065  0.89835354  0.72592369     0.07280
C317        C  0.98346485  0.91912355  0.70632829    -0.05820
H318        H  0.95601714  0.85364036  0.71953393     0.07940
H319        H  0.99656307  0.94029476  0.70941642     0.09140
Cu320      Cu  0.93493128  0.85402769  0.65351593     0.44170
Cu321      Cu  0.97008270  0.92783435  0.64457089     0.41990
Cu322      Cu  0.94023355  0.88144145  0.58681284     0.43880
N323        N  0.92128842  0.82904300  0.61846635    -0.34470
N324        N  0.92437396  0.83906021  0.59413199    -0.28730
C325        C  0.91763611  0.81702470  0.57593141    -0.04830
C326        C  0.90960523  0.79195527  0.58939321     0.07390
C327        C  0.91193610  0.80034788  0.61632111     0.01180
H328        H  0.91932381  0.81895200  0.55458013     0.08830
H329        H  0.90901527  0.78625082  0.63326275     0.07910
N330        N  0.96047584  0.92332193  0.58380292    -0.35920
N331        N  0.97159615  0.94043671  0.60490571    -0.28100
C332        C  0.98562839  0.96515263  0.59622087    -0.03340
C333        C  0.98319753  0.96351185  0.56821612     0.05270
C334        C  0.96705585  0.93661627  0.56114885     0.03360
H335        H  0.99825646  0.98220660  0.60955127     0.08470
H336        H  0.96126208  0.92697815  0.54107128     0.07300
N337        N  0.70827674  0.45789754  0.53594176    -0.27090
N338        N  0.69167186  0.48281282  0.54011758    -0.34950
C339        C  0.71362538  0.50570427  0.53892567     0.01250
C340        C  0.74555615  0.49474789  0.53364897     0.07280
C341        C  0.74133677  0.46435360  0.53198620    -0.05820
H342        H  0.70641188  0.52868714  0.54087628     0.07940
H343        H  0.76047506  0.44818089  0.52742748     0.09140
Cu344      Cu  0.63881842  0.48555840  0.54398020     0.44170
Cu345      Cu  0.68424584  0.41656379  0.53320144     0.41990
Cu346      Cu  0.58971018  0.41812762  0.53391156     0.43880
N347        N  0.58439436  0.48394022  0.54040402    -0.34470
N348        N  0.56630849  0.45906417  0.53647964    -0.28730
C349        C  0.53161885  0.46539203  0.53253458    -0.04830
C350        C  0.52774941  0.49574632  0.53396181     0.07390
C351        C  0.56171143  0.50683525  0.53907666     0.01180
H352        H  0.51085366  0.44914014  0.52812168     0.08830
H353        H  0.56943094  0.52984371  0.54078990     0.07910
N354        N  0.61774661  0.38018535  0.52789550    -0.35920
N355        N  0.65212150  0.37935666  0.52751867    -0.28100
C356        C  0.66119291  0.35173811  0.52102382    -0.03340
C357        C  0.63105753  0.33432471  0.51718211     0.05270
C358        C  0.60405573  0.35327379  0.52167345     0.03360
H359        H  0.68765540  0.34505777  0.51861581     0.08470
H360        H  0.57613992  0.34849364  0.51917689     0.07300
N361        N  0.55525515  0.09866933  0.38233259    -0.27090
N362        N  0.56679609  0.12578988  0.37947822    -0.34950
C363        C  0.56040757  0.13309529  0.35314151     0.01250
C364        C  0.54430200  0.10934951  0.33840642     0.07280
C365        C  0.54147861  0.08793559  0.35778688    -0.05820
H366        H  0.56562703  0.15477993  0.34576729     0.07940
H367        H  0.52945809  0.06635530  0.35450468     0.09140
Cu368      Cu  0.58812155  0.15319411  0.41126867     0.44170
Cu369      Cu  0.55500174  0.07867145  0.41960982     0.41990
Cu370      Cu  0.58422442  0.12537669  0.47776125     0.43880
N371        N  0.60307521  0.17784501  0.44630299    -0.34470
N372        N  0.60048470  0.16771755  0.47068296    -0.28730
C373        C  0.60774709  0.18965466  0.48893579    -0.04830
C374        C  0.61582037  0.21472232  0.47546519     0.07390
C375        C  0.61266016  0.20647584  0.44844672     0.01180
H376        H  0.60610909  0.18775249  0.51029798     0.08830
H377        H  0.61488581  0.22069476  0.43144370     0.07910
N378        N  0.56381060  0.08348669  0.48044330    -0.35920
N379        N  0.55299299  0.06631425  0.45930810    -0.28100
C380        C  0.53876543  0.04164390  0.46791504    -0.03340
C381        C  0.54076453  0.04336158  0.49588799     0.05270
C382        C  0.55685611  0.07025804  0.50302002     0.03360
H383        H  0.52631657  0.02456002  0.45453256     0.08470
H384        H  0.56239973  0.07993831  0.52309282     0.07300
N385        N  0.70830701  0.54897885  0.03695964    -0.27090
N386        N  0.69155576  0.52414003  0.04058322    -0.34950
C387        C  0.71344565  0.50109987  0.03906625     0.01250
C388        C  0.74548534  0.51187192  0.03413782     0.07280
C389        C  0.74138828  0.54231233  0.03301381    -0.05820
H390        H  0.70613052  0.47815361  0.04058130     0.07940
H391        H  0.76065833  0.55839095  0.02887956     0.09140
Cu392      Cu  0.63863406  0.52169999  0.04419287     0.44170
Cu393      Cu  0.68453486  0.59057373  0.03503070     0.41990
Cu394      Cu  0.58955118  0.58918986  0.03431280     0.43880
N395        N  0.58419375  0.52344529  0.04047212    -0.34470
N396        N  0.56600021  0.54833853  0.03656873    -0.28730
C397        C  0.53131993  0.54203949  0.03263133    -0.04830
C398        C  0.52760284  0.51168647  0.03405147     0.07390
C399        C  0.56163952  0.50059542  0.03913884     0.01180
H400        H  0.51045129  0.55829341  0.02829725     0.08830
H401        H  0.56950246  0.47759264  0.04088993     0.07910
N402        N  0.61781699  0.62706721  0.02898640    -0.35920
N403        N  0.65239334  0.62796174  0.02953235    -0.28100
C404        C  0.66150787  0.65551704  0.02319954    -0.03340
C405        C  0.63112251  0.67263787  0.01822620     0.05270
C406        C  0.60403115  0.65380483  0.02211058     0.03360
H407        H  0.68790768  0.66199992  0.02063537     0.08470
H408        H  0.57608604  0.65883296  0.01911480     0.07300
N409        N  0.55444616  0.90866628  0.88273616    -0.27090
N410        N  0.56118370  0.88026878  0.87950807    -0.34950
C411        C  0.55292019  0.87310265  0.85314173     0.01250
C412        C  0.54091915  0.89826518  0.83906039     0.07280
C413        C  0.54216511  0.92044913  0.85836735    -0.05820
H414        H  0.55444100  0.85100179  0.84495389     0.07940
H415        H  0.53279780  0.94295297  0.85518367     0.09140
Cu416      Cu  0.57905478  0.85188925  0.91107488     0.44170
Cu417      Cu  0.55727233  0.92852921  0.92058152     0.41990
Cu418      Cu  0.59141687  0.88213957  0.97854396     0.43880
N419        N  0.59691189  0.82727736  0.94531385    -0.34470
N420        N  0.60275078  0.83850648  0.97010105    -0.28730
C421        C  0.61261322  0.81659314  0.98784121    -0.04830
C422        C  0.61247678  0.79029485  0.97348725     0.07390
C423        C  0.60251091  0.79793286  0.94658845     0.01180
H424        H  0.61738118  0.81931422  0.00964980     0.08830
H425        H  0.59869370  0.78317574  0.92924928     0.07910
N426        N  0.56880666  0.92351688  0.98165101    -0.35920
N427        N  0.55614186  0.94021099  0.96071118    -0.28100
C428        C  0.54022697  0.96403587  0.96969981    -0.03340
C429        C  0.54269624  0.96224282  0.99766145     0.05270
C430        C  0.56133544  0.93630219  0.00447402     0.03360
H431        H  0.52645421  0.98074215  0.95663840     0.08470
H432        H  0.56857767  0.92691854  0.02442156     0.07300
N433        N  0.81386914  0.45739656  0.02698548    -0.27090
N434        N  0.83060477  0.48223338  0.02332493    -0.34950
C435        C  0.80870579  0.50527196  0.02482070     0.01250
C436        C  0.77667561  0.49450153  0.02977142     0.07280
C437        C  0.78078769  0.46406365  0.03093065    -0.05820
H438        H  0.81600927  0.52821724  0.02327715     0.07940
H439        H  0.76153064  0.44798857  0.03509569     0.09140
Cu440      Cu  0.88351922  0.48468377  0.01969480     0.44170
Cu441      Cu  0.83766134  0.41580466  0.02898161     0.41990
Cu442      Cu  0.93261661  0.41720454  0.02961787     0.43880
N443        N  0.93795761  0.48294467  0.02339448    -0.34470
N444        N  0.95615458  0.45805408  0.02730837    -0.28730
C445        C  0.99083366  0.46435580  0.03123489    -0.04830
C446        C  0.99454727  0.49470761  0.02979785     0.07390
C447        C  0.96050900  0.50579574  0.02471082     0.01180
H448        H  0.51170426  0.44810536  0.03558076     0.08830
H449        H  0.95264359  0.52879767  0.02295355     0.07910
N450        N  0.90439372  0.37933079  0.03504610    -0.35920
N451        N  0.86982494  0.37842859  0.03453907    -0.28100
C452        C  0.86074310  0.35088435  0.04093536    -0.03340
C453        C  0.89114328  0.33377792  0.04590875     0.05270
C454        C  0.91820695  0.35261047  0.04195647     0.03360
H455        H  0.83435559  0.34440054  0.04353202     0.08470
H456        H  0.94615409  0.34759337  0.04492041     0.07300
N457        N  0.96796326  0.09761224  0.18146115    -0.27090
N458        N  0.96159580  0.12609726  0.18453007    -0.34950
C459        C  0.97034558  0.13348408  0.21079481     0.01250
C460        C  0.98236568  0.10840369  0.22503391     0.07280
C461        C  0.98047434  0.08599125  0.20586741    -0.05820
H462        H  0.96914071  0.15569453  0.21880768     0.07940
H463        H  0.98966647  0.06344968  0.20913443     0.09140
Cu464      Cu  0.94368626  0.15439998  0.15291602     0.44170
Cu465      Cu  0.96459028  0.07754469  0.14365596     0.41990
Cu466      Cu  0.93074971  0.12417939  0.08558997     0.43880
N467        N  0.92571293  0.17910493  0.11876511    -0.34470
N468        N  0.91964054  0.16787365  0.09398807    -0.28730
C469        C  0.90970926  0.18979875  0.07627331    -0.04830
C470        C  0.91004621  0.21610981  0.09063675     0.07390
C471        C  0.92020412  0.20846239  0.11751505     0.01180
H472        H  0.90473461  0.18707114  0.05446815     0.08830
H473        H  0.92418304  0.22321564  0.13485432     0.07910
N474        N  0.95326022  0.08274458  0.08255796    -0.35920
N475        N  0.96577377  0.06598349  0.10349279    -0.28100
C476        C  0.98171834  0.04217132  0.09450973    -0.03340
C477        C  0.97942900  0.04403709  0.06656421     0.05270
C478        C  0.96085767  0.07000875  0.05975143     0.03360
H479        H  0.99540833  0.02542995  0.10757544     0.08470
H480        H  0.95375336  0.07945594  0.03981730     0.07300
C481        C  0.89513658  0.30352531  0.05718392    -0.05260
C482        C  0.92433200  0.29709617  0.07697826    -0.32690
C483        C  0.92905546  0.26889485  0.08832510     0.36560
C484        C  0.90488626  0.24623162  0.07939573    -0.05620
C485        C  0.87598566  0.25239458  0.05925863    -0.32590
C486        C  0.87063629  0.28096552  0.04849427     0.36460
H487        H  0.94345850  0.31411717  0.08398275     0.16830
O488        O  0.95838478  0.26331139  0.10713584    -0.60090
H489        H  0.85729831  0.23509739  0.05209258     0.16850
O490        O  0.84235069  0.28624898  0.02865756    -0.60190
H491        H  0.82173545  0.28818736  0.03834091     0.43840
H492        H  0.95316944  0.27217752  0.12430439     0.43800
C493        C  0.52687060  0.98294261  0.01570687    -0.05260
C494        C  0.52119640  0.01258908  0.00792332    -0.32690
C495        C  0.00561002  0.03269274  0.02399147     0.36560
C496        C  0.99533275  0.02336019  0.04853976    -0.05620
C497        C  0.50102380  0.99371542  0.05632669    -0.32590
C498        C  0.51662133  0.97361629  0.04026386     0.36460
H499        H  0.52931701  0.02046915  0.98940521     0.16830
O500        O  0.00225601  0.06168509  0.01607251    -0.60090
H501        H  0.99289662  0.98582633  0.07483875     0.16850
O502        O  0.51999810  0.94462716  0.04818971    -0.60190
H503        H  0.53999605  0.94428863  0.06340753     0.43840
H504        H  0.98228247  0.06203288  0.00083592     0.43800
C505        C  0.62717524  0.70289496  0.00696984    -0.05260
C506        C  0.59807434  0.70932490  0.98709201    -0.32690
C507        C  0.59342201  0.73752475  0.97573760     0.36560
C508        C  0.61756462  0.76018112  0.98474301    -0.05620
C509        C  0.64635900  0.75402151  0.00497201    -0.32590
C510        C  0.65164165  0.72545151  0.01574609     0.36460
H511        H  0.57897501  0.69230408  0.98002519     0.16830
O512        O  0.56418599  0.74311372  0.95683740    -0.60090
H513        H  0.66501710  0.77131862  0.01219986     0.16850
O514        O  0.67982522  0.72016279  0.03566958    -0.60190
H515        H  0.70051337  0.71821885  0.02606731     0.43840
H516        H  0.56951245  0.73425973  0.93969613     0.43800
C517        C  0.99900555  0.10729003  0.25365530    -0.05260
C518        C  0.52586762  0.12739239  0.26302190    -0.32690
C519        C  0.54161951  0.12776518  0.29024710     0.36560
C520        C  0.52992963  0.10814557  0.30891373    -0.05620
C521        C  0.50338202  0.08753742  0.29919252    -0.32590
C522        C  0.98810110  0.08694366  0.27179685     0.36460
H523        H  0.53501746  0.14273167  0.24904278     0.16830
O524        O  0.56940443  0.14654433  0.29800206    -0.60090
H525        H  0.99371293  0.07221111  0.31287265     0.16850
O526        O  0.96189178  0.06694832  0.26312317    -0.60190
H527        H  0.93956395  0.07721221  0.26524580     0.43840
H528        H  0.55897155  0.16670006  0.29722463     0.43800
C529        C  0.62089271  0.24483946  0.48684338    -0.05260
C530        C  0.59781974  0.25558412  0.50383495    -0.32690
C531        C  0.60075991  0.28458405  0.51388916     0.36560
C532        C  0.62778133  0.30318930  0.50751393    -0.05620
C533        C  0.65152141  0.29198737  0.49110095    -0.32590
C534        C  0.64808715  0.26313476  0.48067273     0.36460
H535        H  0.57687389  0.24164038  0.50887890     0.16830
O536        O  0.57780974  0.29410326  0.53065736    -0.60090
H537        H  0.67241715  0.30579023  0.48582113     0.16850
O538        O  0.67159037  0.25296429  0.46463457    -0.60190
H539        H  0.69062785  0.24317122  0.47725889     0.43840
H540        H  0.55478146  0.29671910  0.51873152     0.43800
C541        C  0.99772512  0.98426007  0.54987430    -0.05260
C542        C  0.50878250  0.97329920  0.52614823    -0.32690
C543        C  0.52276701  0.99213071  0.50837014     0.36480
C544        C  0.52605007  0.02263235  0.51415666    -0.05620
C545        C  0.51494445  0.03359749  0.53786829    -0.32590
C546        C  0.50097438  0.01476198  0.55565210     0.36460
H547        H  0.00724050  0.94987291  0.52148765     0.16830
O548        O  0.53472129  0.98019411  0.48614565    -0.60090
H549        H  0.51648762  0.05702120  0.54253659     0.16850
O550        O  0.98903732  0.02668228  0.57789232    -0.60190
H551        H  0.51059508  0.03176540  0.59077720     0.43840
H552        H  0.51317000  0.97515690  0.47323531     0.43800
C553        C  0.99384582  0.89962893  0.75528719    -0.05260
C554        C  0.52392234  0.91686239  0.76438384    -0.32690
C555        C  0.53923643  0.91698972  0.79176141     0.36560
C556        C  0.52460163  0.89967813  0.81043915    -0.05620
C557        C  0.99431961  0.88292799  0.80162327    -0.32590
C558        C  0.97858444  0.88316273  0.77441811     0.36460
H559        H  0.53625176  0.92966740  0.75019038     0.16830
O560        O  0.56900444  0.93345617  0.79993684    -0.60090
H561        H  0.98260115  0.86983415  0.81599810     0.16850
O562        O  0.94808053  0.86745460  0.76692740    -0.60190
H563        H  0.92870034  0.88188221  0.76770280     0.43840
H564        H  0.58904006  0.92001137  0.79817469     0.43800
C565        C  0.89231415  0.70410793  0.55663317    -0.05260
C566        C  0.92097433  0.72106126  0.55103035    -0.32690
C567        C  0.92671958  0.74967491  0.56149563     0.36560
C568        C  0.90366037  0.76195660  0.57791504    -0.05620
C569        C  0.87501157  0.74526833  0.58359025    -0.32590
C570        C  0.86889812  0.71670762  0.57280838     0.36460
H571        H  0.93925970  0.71209044  0.53857889     0.16830
O572        O  0.95558105  0.76512379  0.55618016    -0.60090
H573        H  0.85717149  0.75448495  0.59631323     0.16850
O574        O  0.84101230  0.70091547  0.57938402    -0.60190
H575        H  0.81987658  0.70890201  0.56762042     0.43840
H576        H  0.97454043  0.76070661  0.57154373     0.43800
loop_ 
_geom_bond_atom_site_label_1 
_geom_bond_atom_site_label_2 
_geom_bond_distance 
_geom_bond_site_symmetry_2 
_ccdc_geom_bond_type 
N1            N2   1.323       .  A
N1            C5   1.345       .  A
N1           Cu9   2.079       .  S
N2            C3   1.345       .  A
N2           Cu8   2.068       .  S
C3            C4   1.381       .  A
C3            H6   1.082       .  S
C4            C5   1.384       .  A
C4           C52   1.471       .  S
C5            H7   1.082       .  S
Cu8          N11   2.068       .  S
Cu9          N19   2.078       .  S
Cu10         N12   2.068       .  S
Cu10         N18   2.068       .  S
N11          N12   1.321       .  A
N11          C15   1.344       .  A
N12          C13   1.345       .  A
C13          C14   1.383       .  A
C13         H304   1.082       .  S
C14          C15   1.382       .  A
C14         C350   1.469       .  S
C15          H17   1.082       .  S
H16         C301   1.082   1_455  S
N18          N19   1.321       .  A
N18          C22   1.342       .  A
N19          C20   1.346       .  A
C20          C21   1.389       .  A
C20          H23   1.080       .  S
C21          C22   1.386       .  A
C21         C277   1.486       .  S
C22          H24   1.082       .  S
N25          N26   1.322       .  A
N25          C29   1.345       .  A
N25         Cu33   2.074       .  S
N26          C27   1.344       .  A
N26         Cu32   2.076       .  S
C27          C28   1.387       .  A
C27          H30   1.081       .  S
C28          C29   1.386       .  A
C28         C265   1.485       .  S
C29          H31   1.082       .  S
Cu32         N35   2.075       .  S
Cu33         N43   2.073       .  S
Cu34         N36   2.064       .  S
Cu34         N42   2.064       .  S
N35          N36   1.322       .  A
N35          C39   1.346       .  A
N36          C37   1.343       .  A
C37          C38   1.381       .  A
C37          H40   1.082       .  S
C38          C39   1.384       .  A
C38         C280   1.474       .  S
C39          H41   1.082       .  S
N42          N43   1.320       .  A
N42          C46   1.342       .  A
N43          C44   1.345       .  A
C44          C45   1.388       .  A
C44          H47   1.081       .  S
C45          C46   1.385       .  A
C45         C253   1.484       .  S
C46          H48   1.082       .  S
N49          N50   1.323       .  A
N49          C53   1.346       .  A
N49         Cu57   2.081       .  S
N50          C51   1.344       .  A
N50         Cu56   2.068       .  S
C51          C52   1.381       .  A
C51          H54   1.082       .  S
C52          C53   1.385       .  A
C53          H55   1.082       .  S
Cu56         N59   2.068       .  S
Cu57         N67   2.081       .  S
Cu58         N60   2.065       .  S
Cu58         N66   2.066       .  S
N59          N60   1.321       .  A
N59          C63   1.344       .  A
N60          C61   1.344       .  A
C61          C62   1.382       .  A
C61          H64   1.082       .  S
C62          C63   1.383       .  A
C62         C302   1.469   1_455  S
C63          H65   1.082       .  S
N66          N67   1.321       .  A
N66          C70   1.342       .  A
N67          C68   1.346       .  A
C68          C69   1.388       .  A
C68          H71   1.082       .  S
C69          C70   1.385       .  A
C69         C244   1.485       .  S
C70          H72   1.081       .  S
N73          N74   1.321       .  A
N73          C77   1.345       .  A
N73         Cu81   2.075       .  S
N74          C75   1.342       .  A
N74         Cu80   2.074       .  S
C75          C76   1.389       .  A
C75          H78   1.080       .  S
C76          C77   1.389       .  A
C76         C232   1.490       .  S
C77          H79   1.081       .  S
Cu80         N83   2.073       .  S
Cu81         N91   2.075       .  S
Cu82         N84   2.065       .  S
Cu82         N90   2.065       .  S
N83          N84   1.321       .  A
N83          C87   1.346       .  A
N84          C85   1.343       .  A
C85          C86   1.382       .  A
C85          H88   1.082       .  S
C86          C87   1.384       .  A
C86         C241   1.474       .  S
C87          H89   1.082       .  S
N90          N91   1.321       .  A
N90          C94   1.342       .  A
N91          C92   1.345       .  A
C92          C93   1.388       .  A
C92          H95   1.081       .  S
C93          C94   1.385       .  A
C93         C256   1.484       .  S
C94          H96   1.082       .  S
N97          N98   1.323       .  A
N97         C101   1.346       .  A
N97        Cu105   2.083       .  S
N98          C99   1.344       .  A
N98        Cu104   2.068       .  S
C99         C100   1.381       .  A
C99         H102   1.082       .  S
C100        C101   1.385       .  A
C100        C148   1.472       .  S
C101        H103   1.082       .  S
Cu104       N107   2.068       .  S
Cu105       N115   2.082       .  S
Cu106       N108   2.070       .  S
Cu106       N114   2.070       .  S
N107        N108   1.321       .  A
N107        C111   1.344       .  A
N108        C109   1.345       .  A
C109        C110   1.383       .  A
C109        H112   1.082       .  S
C110        C111   1.383       .  A
C110        C446   1.470   1_455  S
C111        H113   1.082       .  S
N114        N115   1.322       .  A
N114        C118   1.342       .  A
N115        C116   1.348       .  A
C116        C117   1.387       .  A
C116        H119   1.082       .  S
C117        C118   1.383       .  A
C117        C217   1.480       .  S
C118        H120   1.082       .  S
N121        N122   1.322       .  A
N121        C125   1.347       .  A
N121       Cu129   2.075       .  S
N122        C123   1.343       .  A
N122       Cu128   2.069       .  S
C123        C124   1.380       .  A
C123        H126   1.082       .  S
C124        C125   1.382       .  A
C124        C268   1.470       .  S
C125        H127   1.082       .  S
Cu128       N131   2.069       .  S
Cu129       N139   2.076       .  S
Cu130       N132   2.073       .  S
Cu130       N138   2.074       .  S
N131        N132   1.321       .  A
N131        C135   1.343       .  A
N132        C133   1.346       .  A
C133        C134   1.384       .  A
C133        H136   1.082   1_556  S
C134        C135   1.383       .  A
C134        C220   1.477       .  S
C135        H137   1.082       .  S
N138        N139   1.322       .  A
N138        C142   1.344   1_556  A
N139        C140   1.344       .  A
C140        C141   1.387       .  A
C140        H143   1.082       .  S
C141        C142   1.387   1_556  A
C141        C205   1.487   1_556  S
C142        H144   1.080       .  S
N145        N146   1.323       .  A
N145        C149   1.346       .  A
N145       Cu153   2.083       .  S
N146        C147   1.344       .  A
N146       Cu152   2.068       .  S
C147        C148   1.381       .  A
C147        H150   1.082       .  S
C148        C149   1.385       .  A
C149        H151   1.082       .  S
Cu152       N155   2.068       .  S
Cu153       N163   2.082       .  S
Cu154       N156   2.070       .  S
Cu154       N162   2.071       .  S
N155        N156   1.321       .  A
N155        C159   1.344       .  A
N156        C157   1.345       .  A
C157        C158   1.383       .  A
C157        H448   1.082       .  S
C158        C159   1.383       .  A
C158        C398   1.470       .  S
C159        H161   1.082       .  S
H160        C445   1.082   1_455  S
N162        N163   1.322       .  A
N162        C166   1.342       .  A
N163        C164   1.348       .  A
C164        C165   1.387       .  A
C164        H167   1.082       .  S
C165        C166   1.383       .  A
C165        C193   1.480       .  S
C166        H168   1.082       .  S
N169        N170   1.322       .  A
N169        C173   1.347       .  A
N169       Cu177   2.075       .  S
N170        C171   1.342       .  A
N170       Cu176   2.069       .  S
C171        C172   1.381       .  A
C171        H174   1.082       .  S
C172        C173   1.384       .  A
C172        C229   1.473       .  S
C173        H175   1.082       .  S
Cu176       N179   2.069       .  S
Cu177       N187   2.076       .  S
Cu178       N180   2.073       .  S
Cu178       N186   2.074       .  S
N179        N180   1.321       .  A
N179        C183   1.343       .  A
N180        C181   1.346       .  A
C181        C182   1.384       .  A
C181        H184   1.082       .  S
C182        C183   1.383       .  A
C182        C196   1.477       .  S
C183        H185   1.082       .  S
N186        N187   1.322       .  A
N186        C190   1.344       .  A
N187        C188   1.344       .  A
C188        C189   1.387       .  A
C188        H191   1.082       .  S
C189        C190   1.387       .  A
C189        C208   1.487       .  S
C190        H192   1.080       .  S
C193        C194   1.404       .  A
C193        C198   1.409       .  A
C194        C195   1.398       .  A
C194        H199   1.083       .  S
C195        C196   1.407       .  A
C195        O200   1.372       .  S
C196        C197   1.404       .  A
C197        C198   1.404       .  A
C197        H201   1.084       .  S
C198        O202   1.371       .  S
O200        H204   0.992       .  S
O202        H203   0.992       .  S
C205        C206   1.404   1_565  A
C205        C210   1.412       .  A
C206        C495   1.401       .  A
C206        H211   1.083   1_554  S
C207        C208   1.412       .  A
C207        C494   1.401       .  A
C207        O212   1.371       .  S
C208        C497   1.404   1_545  A
C209        C210   1.401       .  A
C209        C496   1.404   1_465  A
C209        H501   1.083   1_455  S
C210        O214   1.371       .  S
O212        H216   0.992       .  S
H213        C497   1.083       .  S
O214        H215   0.992       .  S
C217        C218   1.404   1_554  A
C217        C222   1.409       .  A
C218        C219   1.398       .  A
C218        H223   1.083       .  S
C219        C220   1.407       .  A
C219        O224   1.372       .  S
C220        C221   1.404   1_556  A
C221        C222   1.404       .  A
C221        H225   1.084       .  S
C222        O226   1.371       .  S
O224        H228   0.992       .  S
O226        H227   0.992       .  S
C229        C234   1.404       .  A
C229        C518   1.399       .  A
C230        C231   1.399       .  A
C230        C517   1.399   1_455  A
C230        H235   1.084       .  S
C231        C232   1.414       .  A
C231        O236   1.371       .  S
C232        C233   1.410       .  A
C233        C522   1.402   1_455  A
C233        H525   1.082   1_455  S
C234        C521   1.402       .  A
C234        O238   1.372       .  S
O236        H240   0.992       .  S
H237        C521   1.082       .  S
O238        H239   0.992       .  S
C241        C242   1.401       .  A
C241        C246   1.406       .  A
C242        C243   1.400       .  A
C242        H247   1.084       .  S
C243        C244   1.412       .  A
C243        O248   1.372       .  S
C244        C245   1.407       .  A
C245        C246   1.401       .  A
C245        H249   1.083       .  S
C246        O250   1.371       .  S
O248        H252   0.992       .  S
O250        H251   0.992       .  S
C253        C542   1.406       .  A
C253        C546   1.409   1_565  A
C254        C255   1.400       .  A
C254        C541   1.406   1_455  A
C254        H547   1.083       .  S
C255        C256   1.409   1_565  A
C255        O260   1.371       .  S
C256        C257   1.406       .  A
C257        C258   1.400       .  A
C257        H261   1.083       .  S
C258        C541   1.409   1_445  A
C258        O550   1.372   1_455  S
H259        C542   1.083       .  S
O260        H264   0.992       .  S
O262        C546   1.372       .  S
O262        H551   0.992       .  S
H263        O550   0.992   1_455  S
C265        C270   1.412       .  A
C265        C554   1.408       .  A
C266        C267   1.401       .  A
C266        C553   1.408   1_455  A
C266        H271   1.083       .  S
C267        C268   1.404       .  A
C267        O272   1.372       .  S
C268        C557   1.400   1_455  A
C269        C270   1.398       .  A
C269        C556   1.400       .  A
C269        H273   1.084       .  S
C270        O274   1.371       .  S
O272        H276   0.992       .  S
O274        H275   0.992       .  S
C277        C278   1.406       .  A
C277        C282   1.414       .  A
C278        C279   1.397       .  A
C278        H283   1.083       .  S
C279        C280   1.406       .  A
C279        O284   1.372       .  S
C280        C281   1.401       .  A
C281        C282   1.402       .  A
C281        H285   1.084       .  S
C282        O286   1.371       .  S
O284        H288   0.992       .  S
O286        H287   0.992       .  S
N289        N290   1.323       .  A
N289        C293   1.345       .  A
N289       Cu297   2.079       .  S
N290        C291   1.345       .  A
N290       Cu296   2.068       .  S
C291        C292   1.381       .  A
C291        H294   1.082       .  S
C292        C293   1.384       .  A
C292        C340   1.471       .  S
C293        H295   1.082       .  S
Cu296       N299   2.068       .  S
Cu297       N307   2.078       .  S
Cu298       N300   2.068       .  S
Cu298       N306   2.068       .  S
N299        N300   1.321       .  A
N299        C303   1.344       .  A
N300        C301   1.345       .  A
C301        C302   1.383       .  A
C302        C303   1.382       .  A
C303        H305   1.082       .  S
N306        N307   1.321       .  A
N306        C310   1.342       .  A
N307        C308   1.346       .  A
C308        C309   1.389       .  A
C308        H311   1.080       .  S
C309        C310   1.386       .  A
C309        C565   1.486       .  S
C310        H312   1.082       .  S
N313        N314   1.322       .  A
N313        C317   1.345       .  A
N313       Cu321   2.074       .  S
N314        C315   1.344       .  A
N314       Cu320   2.076       .  S
C315        C316   1.387       .  A
C315        H318   1.081       .  S
C316        C317   1.386       .  A
C316        C553   1.485       .  S
C317        H319   1.082       .  S
Cu320       N323   2.075       .  S
Cu321       N331   2.073       .  S
Cu322       N324   2.064       .  S
Cu322       N330   2.064       .  S
N323        N324   1.322       .  A
N323        C327   1.346       .  A
N324        C325   1.343       .  A
C325        C326   1.381       .  A
C325        H328   1.082       .  S
C326        C327   1.384       .  A
C326        C568   1.474       .  S
C327        H329   1.082       .  S
N330        N331   1.320       .  A
N330        C334   1.342       .  A
N331        C332   1.345       .  A
C332        C333   1.388       .  A
C332        H335   1.081       .  S
C333        C334   1.385       .  A
C333        C541   1.484       .  S
C334        H336   1.082       .  S
N337        N338   1.323       .  A
N337        C341   1.346       .  A
N337       Cu345   2.081       .  S
N338        C339   1.344       .  A
N338       Cu344   2.068       .  S
C339        C340   1.381       .  A
C339        H342   1.082       .  S
C340        C341   1.385       .  A
C341        H343   1.082       .  S
Cu344       N347   2.068       .  S
Cu345       N355   2.081       .  S
Cu346       N348   2.065       .  S
Cu346       N354   2.066       .  S
N347        N348   1.321       .  A
N347        C351   1.344       .  A
N348        C349   1.344       .  A
C349        C350   1.382       .  A
C349        H352   1.082       .  S
C350        C351   1.383       .  A
C351        H353   1.082       .  S
N354        N355   1.321       .  A
N354        C358   1.342       .  A
N355        C356   1.346       .  A
C356        C357   1.388       .  A
C356        H359   1.082       .  S
C357        C358   1.385       .  A
C357        C532   1.485       .  S
C358        H360   1.081       .  S
N361        N362   1.321       .  A
N361        C365   1.345       .  A
N361       Cu369   2.075       .  S
N362        C363   1.342       .  A
N362       Cu368   2.074       .  S
C363        C364   1.389       .  A
C363        H366   1.080       .  S
C364        C365   1.389       .  A
C364        C520   1.490       .  S
C365        H367   1.081       .  S
Cu368       N371   2.073       .  S
Cu369       N379   2.075       .  S
Cu370       N372   2.065       .  S
Cu370       N378   2.065       .  S
N371        N372   1.321       .  A
N371        C375   1.346       .  A
N372        C373   1.343       .  A
C373        C374   1.382       .  A
C373        H376   1.082       .  S
C374        C375   1.384       .  A
C374        C529   1.474       .  S
C375        H377   1.082       .  S
N378        N379   1.321       .  A
N378        C382   1.342       .  A
N379        C380   1.345       .  A
C380        C381   1.388       .  A
C380        H383   1.081       .  S
C381        C382   1.385       .  A
C381        C544   1.484       .  S
C382        H384   1.082       .  S
N385        N386   1.323       .  A
N385        C389   1.346       .  A
N385       Cu393   2.083       .  S
N386        C387   1.344       .  A
N386       Cu392   2.068       .  S
C387        C388   1.381       .  A
C387        H390   1.082       .  S
C388        C389   1.385       .  A
C388        C436   1.472       .  S
C389        H391   1.082       .  S
Cu392       N395   2.068       .  S
Cu393       N403   2.082       .  S
Cu394       N396   2.070       .  S
Cu394       N402   2.070       .  S
N395        N396   1.321       .  A
N395        C399   1.344       .  A
N396        C397   1.345       .  A
C397        C398   1.383       .  A
C397        H400   1.082       .  S
C398        C399   1.383       .  A
C399        H401   1.082       .  S
N402        N403   1.322       .  A
N402        C406   1.342       .  A
N403        C404   1.348       .  A
C404        C405   1.387       .  A
C404        H407   1.082       .  S
C405        C406   1.383       .  A
C405        C505   1.480       .  S
C406        H408   1.082       .  S
N409        N410   1.322       .  A
N409        C413   1.347       .  A
N409       Cu417   2.075       .  S
N410        C411   1.343       .  A
N410       Cu416   2.069       .  S
C411        C412   1.380       .  A
C411        H414   1.082       .  S
C412        C413   1.382       .  A
C412        C556   1.470       .  S
C413        H415   1.082       .  S
Cu416       N419   2.069       .  S
Cu417       N427   2.076       .  S
Cu418       N420   2.073       .  S
Cu418       N426   2.074       .  S
N419        N420   1.321       .  A
N419        C423   1.343       .  A
N420        C421   1.346       .  A
C421        C422   1.384       .  A
C421        H424   1.082   1_556  S
C422        C423   1.383       .  A
C422        C508   1.477       .  S
C423        H425   1.082       .  S
N426        N427   1.322       .  A
N426        C430   1.344   1_556  A
N427        C428   1.344       .  A
C428        C429   1.387       .  A
C428        H431   1.082       .  S
C429        C430   1.387   1_556  A
C429        C493   1.487   1_556  S
C430        H432   1.080       .  S
N433        N434   1.323       .  A
N433        C437   1.346       .  A
N433       Cu441   2.083       .  S
N434        C435   1.344       .  A
N434       Cu440   2.068       .  S
C435        C436   1.381       .  A
C435        H438   1.082       .  S
C436        C437   1.385       .  A
C437        H439   1.082       .  S
Cu440       N443   2.068       .  S
Cu441       N451   2.082       .  S
Cu442       N444   2.070       .  S
Cu442       N450   2.071       .  S
N443        N444   1.321       .  A
N443        C447   1.344       .  A
N444        C445   1.345       .  A
C445        C446   1.383       .  A
C446        C447   1.383       .  A
C447        H449   1.082       .  S
N450        N451   1.322       .  A
N450        C454   1.342       .  A
N451        C452   1.348       .  A
C452        C453   1.387       .  A
C452        H455   1.082       .  S
C453        C454   1.383       .  A
C453        C481   1.480       .  S
C454        H456   1.082       .  S
N457        N458   1.322       .  A
N457        C461   1.347       .  A
N457       Cu465   2.075       .  S
N458        C459   1.342       .  A
N458       Cu464   2.069       .  S
C459        C460   1.381       .  A
C459        H462   1.082       .  S
C460        C461   1.384       .  A
C460        C517   1.473       .  S
C461        H463   1.082       .  S
Cu464       N467   2.069       .  S
Cu465       N475   2.076       .  S
Cu466       N468   2.073       .  S
Cu466       N474   2.074       .  S
N467        N468   1.321       .  A
N467        C471   1.343       .  A
N468        C469   1.346       .  A
C469        C470   1.384       .  A
C469        H472   1.082       .  S
C470        C471   1.383       .  A
C470        C484   1.477       .  S
C471        H473   1.082       .  S
N474        N475   1.322       .  A
N474        C478   1.344       .  A
N475        C476   1.344       .  A
C476        C477   1.387       .  A
C476        H479   1.082       .  S
C477        C478   1.387       .  A
C477        C496   1.487       .  S
C478        H480   1.080       .  S
C481        C482   1.404       .  A
C481        C486   1.409       .  A
C482        C483   1.398       .  A
C482        H487   1.083       .  S
C483        C484   1.407       .  A
C483        O488   1.372       .  S
C484        C485   1.404       .  A
C485        C486   1.404       .  A
C485        H489   1.084       .  S
C486        O490   1.371       .  S
O488        H492   0.992       .  S
O490        H491   0.992       .  S
C493        C494   1.404   1_565  A
C493        C498   1.412       .  A
C494        H499   1.083   1_554  S
C495        C496   1.412   1_455  A
C495        O500   1.371       .  S
C497        C498   1.401       .  A
C498        O502   1.371       .  S
O500        H504   0.992   1_455  S
O502        H503   0.992       .  S
C505        C506   1.404   1_554  A
C505        C510   1.409       .  A
C506        C507   1.398       .  A
C506        H511   1.083       .  S
C507        C508   1.407       .  A
C507        O512   1.372       .  S
C508        C509   1.404   1_556  A
C509        C510   1.404       .  A
C509        H513   1.084       .  S
C510        O514   1.371       .  S
O512        H516   0.992       .  S
O514        H515   0.992       .  S
C517        C522   1.404       .  A
C518        C519   1.399       .  A
C518        H523   1.084       .  S
C519        C520   1.414       .  A
C519        O524   1.371       .  S
C520        C521   1.410       .  A
C522        O526   1.372       .  S
O524        H528   0.992       .  S
O526        H527   0.992       .  S
C529        C530   1.401       .  A
C529        C534   1.406       .  A
C530        C531   1.400       .  A
C530        H535   1.084       .  S
C531        C532   1.412       .  A
C531        O536   1.372       .  S
C532        C533   1.407       .  A
C533        C534   1.401       .  A
C533        H537   1.083       .  S
C534        O538   1.371       .  S
O536        H540   0.992       .  S
O538        H539   0.992       .  S
C542        C543   1.400       .  A
C543        C544   1.409   1_565  A
C543        O548   1.371       .  S
C544        C545   1.406       .  A
C545        C546   1.400       .  A
C545        H549   1.083       .  S
O548        H552   0.992       .  S
C553        C558   1.412       .  A
C554        C555   1.401       .  A
C554        H559   1.083       .  S
C555        C556   1.404       .  A
C555        O560   1.372       .  S
C557        C558   1.398       .  A
C557        H561   1.084       .  S
C558        O562   1.371       .  S
O560        H564   0.992       .  S
O562        H563   0.992       .  S
C565        C566   1.406       .  A
C565        C570   1.414       .  A
C566        C567   1.397       .  A
C566        H571   1.083       .  S
C567        C568   1.406       .  A
C567        O572   1.372       .  S
C568        C569   1.401       .  A
C569        C570   1.402       .  A
C569        H573   1.084       .  S
C570        O574   1.371       .  S
O572        H576   0.992       .  S
O574        H575   0.992       .  S
