geometry optimzed in LAMMPS
_audit_creation_date              2020-11-30 
_audit_creation_method            'lammps2cif' 
_symmetry_space_group_name_H-M    'P1' 
_symmetry_Int_Tables_number       1 
_symmetry_cell_setting            triclinic 
loop_ 
_symmetry_equiv_pos_as_xyz 
  x,y,z 
_cell_length_a                    71.44503981 
_cell_length_b                    71.16902963891194 
_cell_length_c                    45.22775512021093 
_cell_angle_alpha                 90.23024436743621 
_cell_angle_beta                  89.8230337754031 
_cell_angle_gamma                 121.2126788718554 
loop_ 
_atom_site_label 
_atom_site_type_symbol 
_atom_site_fract_x 
_atom_site_fract_y 
_atom_site_fract_z 
_atom_site_charge 
C1          C  0.68955360  0.47271430  0.50444665     0.86600
C2          C  0.68535117  0.48466727  0.47911902    -0.53700
C3          C  0.66614814  0.48452278  0.48157664     0.09500
C4          C  0.65275677  0.47228811  0.50917669     0.20400
C5          C  0.68797975  0.48373688  0.03001434    -0.54400
C6          C  0.66861709  0.48319170  0.03232681     0.09600
C7          C  0.66944850  0.44935678  0.00195838    -0.53900
C8          C  0.64997729  0.44870885  0.00440416     0.10200
H9          H  0.69745796  0.49467394  0.46265587     0.14700
H10         H  0.63731184  0.47230700  0.51170249     0.00400
H11         H  0.70099127  0.49203766  0.04615048     0.15000
H12         H  0.66965982  0.43472655  0.50432157     0.14800
C13         C  0.54403537  0.32449867  0.01226277     0.86600
C14         C  0.53332778  0.32636870  0.04092448    -0.53700
C15         C  0.53320625  0.34544186  0.04334161     0.09500
C16         C  0.54399171  0.36112495  0.01701678     0.20400
C17         C  0.53007954  0.32948211  0.48917880    -0.54400
C18         C  0.53014141  0.34862536  0.49211274     0.09600
C19         C  0.56689419  0.34528130  0.01138976    -0.53900
C20         C  0.56716842  0.36461113  0.01384610     0.10200
H21         H  0.52535041  0.31322587  0.05700037     0.14700
H22         H  0.54380983  0.37658857  0.01907482     0.00400
H23         H  0.52006982  0.31746608  0.47255594     0.15000
H24         H  0.58158185  0.34459326  0.00808859     0.14800
C25         C  0.31044148  0.54313587  0.00296755     0.86600
C26         C  0.31228699  0.53223402  0.47293267    -0.53700
C27         C  0.33153561  0.53264313  0.46975139     0.09500
C28         C  0.34709052  0.54358665  0.99624580     0.20400
C29         C  0.31497693  0.53093809  0.02755076    -0.54400
C30         C  0.33400609  0.53090170  0.02385387     0.09600
C31         C  0.33099717  0.56624492  0.00234422    -0.53900
C32         C  0.35027830  0.56670370  0.99900323     0.10200
H33         H  0.29888391  0.52375861  0.45737881     0.14700
H34         H  0.36265796  0.54386329  0.99321056     0.00400
H35         H  0.30349581  0.52160486  0.04501433     0.15000
H36         H  0.33025642  0.58099475  0.00529496     0.14800
C37         C  0.45616398  0.69061283  0.00411940     0.86600
C38         C  0.46745322  0.68866553  0.03202023    -0.53700
C39         C  0.46828957  0.66997721  0.03312366     0.09500
C40         C  0.45732400  0.65447140  0.00654212     0.20400
C41         C  0.46924980  0.68811552  0.47700509    -0.54400
C42         C  0.47032289  0.66942890  0.47847503     0.09600
C43         C  0.43351872  0.66932518  0.00454878    -0.53900
C44         C  0.43382077  0.65028327  0.00484995     0.10200
H45         H  0.47493677  0.70128613  0.04893326     0.14700
H46         H  0.45791957  0.63923976  0.00744426     0.00400
H47         H  0.47754566  0.70046500  0.45997682     0.15000
H48         H  0.41826362  0.66906707  0.00589040     0.14800
In49       In  0.46195788  0.38674666  0.14308786     1.36900
C50         C  0.48108962  0.36655826  0.11850159     0.77600
O51         O  0.48488806  0.41764896  0.11876506    -0.60800
O52         O  0.48862006  0.41689222  0.16514137    -0.51700
C53         C  0.42963941  0.38841764  0.11570940     0.70300
O54         O  0.42585588  0.37451888  0.13569184    -0.46600
C55         C  0.45184763  0.37994004  0.20060292     0.75000
O56         O  0.46110814  0.35976783  0.11388794    -0.58400
O57         O  0.45541045  0.39673993  0.18657157    -0.48500
O58         O  0.48976445  0.38145084  0.13762418    -0.54900
C59         C  0.49554445  0.42771521  0.14155744     0.85200
O60         O  0.44937735  0.39946029  0.10801018    -0.56800
O61         O  0.45204780  0.36537706  0.18460262    -0.60000
In62       In  0.61668940  0.54544248  0.13281354     1.36900
C63         C  0.61423068  0.57799861  0.10731156     0.77600
O64         O  0.58454172  0.52123920  0.11205247    -0.60800
O65         O  0.58885580  0.51821486  0.15777469    -0.51700
C66         C  0.63860159  0.52865842  0.10596295     0.70300
O67         O  0.64267370  0.54787083  0.10087063    -0.46600
C68         C  0.62664985  0.55820806  0.18908303     0.75000
O69         O  0.62959415  0.58168988  0.12467157    -0.58400
O70         O  0.60996268  0.55576046  0.17607457    -0.48500
O71         O  0.60183089  0.55800861  0.10086457    -0.54900
C72         C  0.57647419  0.51061953  0.13561377     0.85200
O73         O  0.62437198  0.51886080  0.12563252    -0.56800
O74         O  0.63924635  0.55519421  0.17266877    -0.60000
In75       In  0.46373334  0.39178421  0.38584280     1.36900
C76         C  0.42943567  0.39356771  0.40572961     0.77600
O77         O  0.48494577  0.42813579  0.39442088    -0.60800
O78         O  0.49910530  0.41219512  0.37259563    -0.51700
C79         C  0.47666200  0.36997935  0.42026828     0.70300
O80         O  0.46731079  0.37953886  0.43036228    -0.46600
C81         C  0.45363475  0.38398113  0.32846924     0.75000
O82         O  0.42717179  0.37814276  0.38920023    -0.58400
O83         O  0.46201679  0.40264839  0.34042959    -0.48500
O84         O  0.44875294  0.40622424  0.41456261    -0.54900
C85         C  0.50182369  0.42992177  0.38275764     0.85200
O86         O  0.47683657  0.36924380  0.39247129    -0.56800
O87         O  0.44957470  0.36862780  0.34628212    -0.60000
In88       In  0.62248853  0.55025516  0.37378828     1.36900
C89         C  0.64469856  0.53773024  0.40813951     0.77600
O90         O  0.58771402  0.52893156  0.38828322    -0.60800
O91         O  0.60080891  0.51471990  0.36031466    -0.51700
C92         C  0.61946012  0.58413439  0.39282072     0.70300
O93         O  0.63526639  0.58712935  0.37664571    -0.46600
C94         C  0.62857048  0.55992963  0.31628997     0.75000
O95         O  0.63649766  0.54848229  0.41789661    -0.58400
O96         O  0.61028229  0.55143583  0.32910601    -0.48500
O97         O  0.64438421  0.53635686  0.38036937    -0.54900
C98         C  0.58456756  0.51198254  0.37498419     0.85200
O99         O  0.60716774  0.56457713  0.40106927    -0.56800
O100        O  0.64435916  0.56396042  0.33316561    -0.60000
In101      In  0.37777201  0.46691480  0.36699633     1.36900
C102        C  0.35629739  0.48477106  0.39160011     0.77600
O103        O  0.40884309  0.49127254  0.38954233    -0.60800
O104        O  0.40684369  0.49345534  0.34305444    -0.51700
C105        C  0.38107261  0.43516023  0.39382962     0.70300
O106        O  0.36805604  0.43122954  0.37268643    -0.46600
C107        C  0.36874008  0.45542756  0.31041349     0.75000
O108        O  0.34991511  0.46466771  0.39503465    -0.58400
O109        O  0.38575899  0.45860038  0.32329953    -0.48500
O110        O  0.37200805  0.49454009  0.37391925    -0.54900
C111        C  0.41802923  0.50151850  0.36614060     0.85200
O112        O  0.39010384  0.45457311  0.40332230    -0.56800
O113        O  0.35537878  0.45712283  0.32703381    -0.60000
In114      In  0.53501296  0.62443926  0.36976680     1.36900
C115        C  0.56980736  0.62385473  0.38976658     0.77600
O116        O  0.50987409  0.59311346  0.39135415    -0.60800
O117        O  0.50598912  0.59708519  0.34598114    -0.51700
C118        C  0.52101987  0.64672577  0.40151104     0.70300
O119        O  0.53388249  0.64116108  0.41151922    -0.46600
C120        C  0.54655259  0.63357138  0.31362662     0.75000
O121        O  0.57177105  0.64047015  0.37674802    -0.58400
O122        O  0.54337153  0.61642731  0.32633701    -0.48500
O123        O  0.55031119  0.60868016  0.39406643    -0.54900
C124        C  0.49868214  0.58492920  0.36833111     0.85200
O125        O  0.51703686  0.64282447  0.37435195    -0.56800
O126        O  0.54456145  0.64684069  0.33019045    -0.60000
In127      In  0.38288239  0.46758018  0.12753216     1.36900
C128        C  0.38613523  0.43426699  0.10671221     0.77600
O129        O  0.41527982  0.49178785  0.10703184    -0.60800
O130        O  0.40934066  0.49702906  0.15120942    -0.51700
C131        C  0.36065451  0.48199098  0.09685064     0.70300
O132        O  0.36383311  0.46719635  0.08729294    -0.46600
C133        C  0.37173371  0.45527707  0.18358675     0.75000
O134        O  0.36911237  0.43111865  0.11992911    -0.58400
O135        O  0.38938083  0.45893238  0.17202885    -0.48500
O136        O  0.40011437  0.45415811  0.10193930    -0.54900
C137        C  0.42252708  0.50357141  0.12985645     0.85200
O138        O  0.36730600  0.48805506  0.12281745    -0.56800
O139        O  0.35893236  0.45683670  0.16587811    -0.60000
In140      In  0.53822146  0.62632777  0.13044520     1.36900
C141        C  0.51979942  0.64690217  0.10496282     0.77600
O142        O  0.51637727  0.59363871  0.10910611    -0.60800
O143        O  0.51109697  0.59763187  0.15425713    -0.51700
C144        C  0.57117716  0.62481499  0.10527306     0.70300
O145        O  0.57445252  0.63947901  0.12391860    -0.46600
C146        C  0.54949397  0.63575041  0.18689892     0.75000
O147        O  0.53979982  0.65336650  0.10109322    -0.58400
O148        O  0.54890360  0.61995645  0.17336852    -0.48500
O149        O  0.51022772  0.63111005  0.12256884    -0.54900
C150        C  0.50495354  0.58517953  0.13197300     0.85200
O151        O  0.55160817  0.61333393  0.09679109    -0.56800
O152        O  0.54558902  0.64784817  0.17088319    -0.60000
C153        C  0.31343779  0.77653242  0.00244467     0.86600
C154        C  0.31749122  0.79369446  0.02676150    -0.53700
C155        C  0.33686758  0.81346536  0.02397768     0.09500
C156        C  0.35084015  0.81385328  0.99759270     0.20400
C157        C  0.31642315  0.78854707  0.47196456    -0.54400
C158        C  0.33584809  0.80811473  0.46967142     0.09600
C159        C  0.33377230  0.77447701  0.00459709    -0.53900
C160        C  0.35337672  0.79373988  0.00197625     0.10200
H161        H  0.30587310  0.79084543  0.04417571     0.14700
H162        H  0.36675719  0.82947593  0.99535670     0.00400
H163        H  0.30355041  0.78306224  0.45555945     0.15000
H164        H  0.33271612  0.75889166  0.00798610     0.14800
C165        C  0.45566786  0.77384446  0.00490837     0.86600
C166        C  0.46818846  0.78795882  0.47467182    -0.53700
C167        C  0.46893852  0.80742910  0.47285557     0.09500
C168        C  0.45749162  0.81141006  0.00099963     0.20400
C169        C  0.46730289  0.78961575  0.03131760    -0.54400
C170        C  0.46863769  0.80950635  0.02895865     0.09600
C171        C  0.43306036  0.77184668  0.00418836    -0.53900
C172        C  0.43392211  0.79148280  0.00204511     0.10200
H173        H  0.47615221  0.78299803  0.45861017     0.14700
H174        H  0.45843399  0.82742202  0.99923667     0.00400
H175        H  0.47460630  0.78580358  0.04952142     0.15000
H176        H  0.41763200  0.75637946  0.00610147     0.14800
In177      In  0.46533134  0.09628404  0.14526733     1.36900
C178        C  0.43470515  0.05794976  0.12159851     0.77600
O179        O  0.48912803  0.08888421  0.12399867    -0.60800
O180        O  0.49636939  0.10302425  0.16680491    -0.51700
C181        C  0.47812951  0.13420493  0.11722625     0.70300
O182        O  0.46181972  0.11611400  0.10917375    -0.46600
C183        C  0.45275504  0.09183827  0.20138115     0.75000
O184        O  0.42999971  0.06832783  0.13996307    -0.58400
O185        O  0.46013651  0.08096971  0.18941495    -0.48500
O186        O  0.45441561  0.06829726  0.11346259    -0.54900
C187        C  0.50210499  0.09562148  0.14558682     0.85200
O188        O  0.48635640  0.13322676  0.14122803    -0.56800
O189        O  0.45085141  0.10471337  0.18413046    -0.60000
In190      In  0.46096080  0.08907399  0.38453439     1.36900
C191        C  0.47821736  0.12762665  0.41230932     0.77600
O192        O  0.48286746  0.07957744  0.40725343    -0.60800
O193        O  0.48909931  0.08955022  0.36245958    -0.51700
C194        C  0.42741998  0.05143307  0.40493758     0.70300
O195        O  0.42492597  0.06278801  0.38576376    -0.46600
C196        C  0.45110116  0.08933868  0.32796939     0.75000
O197        O  0.45849312  0.11266829  0.41659854    -0.58400
O198        O  0.45427957  0.07511205  0.33941143    -0.48500
O199        O  0.48783532  0.12321040  0.39275706    -0.54900
C200        C  0.49490482  0.08343356  0.38490322     0.85200
O201        O  0.44616853  0.06097674  0.41645002    -0.56800
O202        O  0.45223183  0.10355768  0.34597614    -0.60000
In203      In  0.38171890  0.92335965  0.37020078     1.36900
C204        C  0.38485374  0.95942897  0.39478703     0.77600
O205        O  0.41073011  0.92784206  0.39520478    -0.60800
O206        O  0.41188493  0.92759260  0.34838922    -0.51700
C207        C  0.36009475  0.88336876  0.39527522     0.70300
O208        O  0.35779419  0.89894481  0.40412161    -0.46600
C209        C  0.37170527  0.92478371  0.31368589     0.75000
O210        O  0.36901269  0.94661232  0.37836152    -0.58400
O211        O  0.35792891  0.91059742  0.33141479    -0.48500
O212        O  0.39759625  0.95267825  0.40039306    -0.54900
C213        C  0.42129632  0.92865215  0.37241343     0.85200
O214        O  0.37146821  0.88777336  0.37222533    -0.56800
O215        O  0.38991565  0.93817212  0.32525473    -0.60000
In216      In  0.38259487  0.92625691  0.13069850     1.36900
C217        C  0.35982480  0.88945260  0.09836091     0.77600
O218        O  0.41421434  0.93296038  0.11060083    -0.60800
O219        O  0.40753201  0.92200098  0.15483346    -0.51700
C220        C  0.38965055  0.96490734  0.11149097     0.70300
O221        O  0.40157382  0.95732193  0.10474342    -0.46600
C222        C  0.37164482  0.92725690  0.18692206     0.75000
O223        O  0.36342786  0.90784548  0.08954151    -0.58400
O224        O  0.38989082  0.94095094  0.17571959    -0.48500
O225        O  0.36547114  0.88958286  0.12467412    -0.54900
C226        C  0.42057129  0.92777895  0.13336911     0.85200
O227        O  0.37246167  0.95155213  0.12546385    -0.56800
O228        O  0.35809241  0.91320360  0.16877056    -0.60000
C229        C  0.68219042  0.23684508  0.01680089     0.86600
C230        C  0.67832321  0.22222548  0.04409938    -0.53700
C231        C  0.65902582  0.20234709  0.04334268     0.09500
C232        C  0.64500828  0.19934729  0.01583039     0.20400
C233        C  0.67946195  0.22281899  0.49109393    -0.54400
C234        C  0.65975960  0.20361659  0.49018051     0.09600
C235        C  0.66205403  0.23909024  0.01524507    -0.53900
C236        C  0.64254031  0.21964195  0.01494814     0.10200
H237        H  0.69081027  0.22604862  0.06062046     0.14700
H238        H  0.62916906  0.18346367  0.01519925     0.00400
H239        H  0.69238770  0.22649557  0.47529079     0.15000
H240        H  0.66320278  0.25491943  0.01466641     0.14800
C241        C  0.54091781  0.23976533  0.00815090     0.86600
C242        C  0.52736941  0.22440716  0.48281760    -0.53700
C243        C  0.52711563  0.20513876  0.48458239     0.09500
C244        C  0.53919221  0.20222169  0.01161888     0.20400
C245        C  0.52889523  0.22613906  0.03588385    -0.54400
C246        C  0.52779798  0.20642405  0.03751396     0.09600
C247        C  0.56340652  0.24182390  0.00880800    -0.53900
C248        C  0.56264007  0.22226556  0.01059485     0.10200
H249        H  0.51820114  0.22668476  0.46572099     0.14700
H250        H  0.53833268  0.18621112  0.01308662     0.00400
H251        H  0.52076620  0.23101513  0.05176630     0.15000
H252        H  0.57867615  0.25757561  0.00825044     0.14800
In253      In  0.61531338  0.09001462  0.38697001     1.36900
C254        C  0.63615028  0.12956207  0.41323400     0.77600
O255        O  0.63898228  0.10334584  0.34815198    -0.60800
O256        O  0.60768121  0.07469755  0.34239546    -0.51700
C257        C  0.61139928  0.05338100  0.40918530     0.70300
O258        O  0.62729679  0.06629933  0.39294092    -0.46600
C259        C  0.57533981  0.08336855  0.38697252     0.75000
O260        O  0.64091010  0.11511143  0.41881623    -0.58400
O261        O  0.58663011  0.08718297  0.36382922    -0.48500
O262        O  0.62253170  0.12437447  0.39270714    -0.54900
C263        C  0.62561999  0.08854214  0.33066879     0.85200
O264        O  0.59964821  0.06087877  0.41723355    -0.56800
O265        O  0.58436045  0.08230950  0.41032584    -0.60000
In266      In  0.61736079  0.09094288  0.14768840     1.36900
C267        C  0.64011275  0.12757558  0.11584048     0.77600
O268        O  0.58577535  0.08316129  0.12654159    -0.60800
O269        O  0.59326126  0.09805843  0.16880958    -0.51700
C270        C  0.61270396  0.05357958  0.12690964     0.70300
O271        O  0.62979265  0.06755021  0.14053071    -0.46600
C272        C  0.62617024  0.08825381  0.20412284     0.75000
O273        O  0.63451470  0.10885092  0.10580916    -0.58400
O274        O  0.60768163  0.07606818  0.19238156    -0.48500
O275        O  0.63686635  0.12779526  0.14313948    -0.54900
C276        C  0.58008667  0.09082827  0.14745361     0.85200
O277        O  0.59911453  0.05949759  0.12263001    -0.56800
O278        O  0.64077866  0.10175442  0.18656553    -0.60000
In279      In  0.53564871  0.92262294  0.13630614     1.36900
C280        C  0.56913830  0.96141353  0.11825833     0.77600
O281        O  0.51423806  0.93328594  0.11535105    -0.60800
O282        O  0.50418072  0.91647975  0.15616765    -0.51700
C283        C  0.52032302  0.88540504  0.10476197     0.70300
O284        O  0.53605635  0.90363215  0.09601477    -0.46600
C285        C  0.54702356  0.92414246  0.19279099     0.75000
O286        O  0.57204918  0.94859037  0.13418103    -0.58400
O287        O  0.53919525  0.93503779  0.18235837    -0.48500
O288        O  0.54981957  0.95321293  0.10913769    -0.54900
C289        C  0.50004870  0.92560251  0.13551232     0.85200
O290        O  0.51440604  0.88584238  0.13079004    -0.56800
O291        O  0.54946672  0.91231343  0.17402162    -0.60000
In292      In  0.53631908  0.92376926  0.37581322     1.36900
C293        C  0.51922703  0.88395784  0.40055906     0.77600
O294        O  0.51087839  0.92808285  0.39896099    -0.60800
O295        O  0.51067550  0.92687002  0.35220191    -0.51700
C296        C  0.56804055  0.96076272  0.40130312     0.70300
O297        O  0.54859079  0.95026448  0.41037733    -0.46600
C298        C  0.54852095  0.92546767  0.31941951     0.75000
O299        O  0.53813197  0.89975222  0.40710799    -0.58400
O300        O  0.54706253  0.91094346  0.33697833    -0.48500
O301        O  0.51019374  0.88825899  0.38007858    -0.54900
C302        C  0.50177270  0.92845859  0.37535426     0.85200
O303        O  0.57207084  0.95083308  0.38145751    -0.56800
O304        O  0.54451258  0.93908959  0.33120667    -0.60000
C305        C  0.76595996  0.32198168  0.01427222     0.86600
C306        C  0.78051540  0.32525431  0.48639530    -0.53700
C307        C  0.79989776  0.34497958  0.48500462     0.09500
C308        C  0.80330767  0.35928642  0.01295186     0.20400
C309        C  0.78113154  0.32557403  0.04060286    -0.54400
C310        C  0.80053020  0.34506640  0.03996383     0.09600
C311        C  0.76375747  0.34236979  0.01344353    -0.53900
C312        C  0.78319938  0.36188893  0.01258934     0.10200
H313        H  0.77618324  0.31215652  0.47052438     0.14700
H314        H  0.81918177  0.37513671  0.01287315     0.00400
H315        H  0.77780358  0.31317894  0.05708074     0.15000
H316        H  0.74806495  0.34139841  0.01325069     0.14800
C317        C  0.77254202  0.47033761  0.00339321     0.86600
C318        C  0.78722451  0.48197969  0.03070517    -0.53700
C319        C  0.80555336  0.48039935  0.03219740     0.09500
C320        C  0.80766347  0.46755705  0.00634290     0.20400
C321        C  0.78773354  0.48168666  0.47563048    -0.54400
C322        C  0.80588045  0.47989586  0.47617124     0.09600
C323        C  0.76794662  0.44659514  0.00444291    -0.53900
C324        C  0.78624780  0.44511968  0.00598509     0.10200
H325        H  0.78369448  0.49101568  0.04693804     0.14700
H326        H  0.82258747  0.46645591  0.00771164     0.00400
H327        H  0.78544808  0.49084096  0.45835729     0.15000
H328        H  0.75155311  0.43218002  0.00404029     0.14800
In329      In  0.08380308  0.61859552  0.14372404     1.36900
C330        C  0.04927693  0.61743335  0.11912088     0.77600
O331        O  0.07671531  0.58894924  0.11749820    -0.60800
O332        O  0.07934535  0.58807841  0.16421820    -0.51700
C333        C  0.12310072  0.63987519  0.11781487     0.70300
O334        O  0.10963837  0.64623879  0.11482864    -0.46600
C335        C  0.08210324  0.62679438  0.20101131     0.75000
O336        O  0.06238565  0.63305211  0.13571113    -0.58400
O337        O  0.06685448  0.61060682  0.18748311    -0.48500
O338        O  0.05523980  0.60407741  0.11293678    -0.54900
C339        C  0.07646506  0.57827677  0.13983171     0.85200
O340        O  0.11710427  0.62443771  0.13584495    -0.56800
O341        O  0.09827711  0.63942655  0.18489280    -0.60000
In342      In  0.07990647  0.62064335  0.38630193     1.36900
C343        C  0.11915476  0.64193892  0.41208873     0.77600
O344        O  0.07380311  0.59127066  0.41324873    -0.60800
O345        O  0.06991358  0.58822323  0.36674130    -0.51700
C346        C  0.04569612  0.62180666  0.40708137     0.70300
O347        O  0.05882825  0.63584840  0.38881518    -0.46600
C348        C  0.08091770  0.62808745  0.32838782     0.75000
O349        O  0.10502992  0.64725396  0.41679449    -0.58400
O350        O  0.06536695  0.61180013  0.34127609    -0.48500
O351        O  0.11361774  0.62721190  0.39279045    -0.54900
C352        C  0.06924670  0.57909194  0.39080477     0.85200
O353        O  0.05185429  0.60947792  0.41725719    -0.56800
O354        O  0.09613196  0.64132466  0.34543768    -0.60000
In355      In  0.92109284  0.54375166  0.37292487     1.36900
C356        C  0.95533293  0.57774268  0.39902299     0.77600
O357        O  0.93551062  0.52377726  0.38747392    -0.60800
O358        O  0.92023128  0.51689027  0.34554222    -0.51700
C359        C  0.88310828  0.52519916  0.40261978     0.70300
O360        O  0.89424162  0.54563394  0.39788957    -0.46600
C361        C  0.92019002  0.55514686  0.31752215     0.75000
O362        O  0.94472030  0.58019707  0.37878885    -0.58400
O363        O  0.93725395  0.55793603  0.32985734    -0.48500
O364        O  0.94675363  0.55829742  0.40816142    -0.54900
C365        C  0.92965368  0.51183575  0.36464131     0.85200
O366        O  0.89141045  0.51485319  0.39201282    -0.56800
O367        O  0.90361314  0.54750426  0.33420615    -0.60000
In368      In  0.92122870  0.54066306  0.13561600     1.36900
C369        C  0.95815243  0.57440278  0.11312200     0.77600
O370        O  0.90442458  0.54698023  0.17385319    -0.60800
O371        O  0.93580474  0.55133462  0.18041373    -0.51700
C372        C  0.88254870  0.52304663  0.10707679     0.70300
O373        O  0.89712731  0.54319452  0.10506790    -0.46600
C374        C  0.92845715  0.50769563  0.13961057     0.75000
O375        O  0.94592869  0.57729412  0.13032697    -0.58400
O376        O  0.92440193  0.51586904  0.16166493    -0.48500
O377        O  0.94996958  0.55482409  0.10464256    -0.54900
C378        C  0.91993666  0.55186375  0.19160911     0.85200
O379        O  0.88765155  0.51253798  0.12416655    -0.56800
O380        O  0.92910651  0.51665796  0.11530853    -0.60000
C381        C  0.22976431  0.68956491  0.01047208     0.86600
C382        C  0.21449242  0.68589111  0.48314766    -0.53700
C383        C  0.19506555  0.66637158  0.48402412     0.09500
C384        C  0.19242692  0.65195388  0.01193391     0.20400
C385        C  0.21602541  0.68599255  0.03866200    -0.54400
C386        C  0.19637633  0.66664784  0.03906282     0.09600
C387        C  0.23199054  0.66900146  0.00953569    -0.53900
C388        C  0.21253570  0.64915689  0.01043007     0.10200
H389        H  0.21814516  0.69827953  0.46648565     0.14700
H390        H  0.17641118  0.63624570  0.01253233     0.00400
H391        H  0.22109945  0.69766815  0.05675022     0.15000
H392        H  0.24766484  0.67004405  0.00862691     0.14800
C393        C  0.22684216  0.54213454  0.01070671     0.86600
C394        C  0.21050648  0.52877855  0.03576392    -0.53700
C395        C  0.19086880  0.52789274  0.03402896     0.09500
C396        C  0.18978096  0.54121456  0.00784304     0.20400
C397        C  0.21302565  0.53077180  0.48178575    -0.54400
C398        C  0.19377018  0.53038495  0.48117128     0.09600
C399        C  0.22925589  0.56488777  0.01195678    -0.53900
C400        C  0.21004887  0.56483591  0.01059339     0.10200
H401        H  0.21306812  0.51886266  0.05146459     0.14700
H402        H  0.17401732  0.54066875  0.00667639     0.00400
H403        H  0.21762525  0.52331783  0.46447848     0.15000
H404        H  0.24517421  0.57988840  0.01319973     0.14800
In405      In  0.07941804  0.46897001  0.37933290     1.36900
C406        C  0.04080792  0.43342494  0.39248834     0.77600
O407        O  0.07322555  0.49109077  0.40795810    -0.60800
O408        O  0.06641444  0.48906749  0.36201061    -0.51700
C409        C  0.11817644  0.48594326  0.40621302     0.70300
O410        O  0.10410417  0.46560771  0.40751619    -0.46600
C411        C  0.08879822  0.46828339  0.32271130     0.75000
O412        O  0.05118822  0.43512030  0.36914729    -0.58400
O413        O  0.08444635  0.48183286  0.33384296    -0.48500
O414        O  0.05157221  0.44854022  0.41095408    -0.54900
C415        C  0.06717234  0.49795364  0.38649047     0.85200
O416        O  0.11245005  0.49661911  0.39062139    -0.56800
O417        O  0.08888483  0.45489548  0.34098805    -0.60000
In418      In  0.07869741  0.46213745  0.13891218     1.36900
C419        C  0.11422462  0.47324164  0.10620234     0.77600
O420        O  0.08430658  0.49285331  0.11694707    -0.60800
O421        O  0.06409986  0.48141634  0.15508286    -0.51700
C422        C  0.03908928  0.42753987  0.12726545     0.70300
O423        O  0.05250547  0.42609856  0.14375847    -0.46600
C424        C  0.08781228  0.46323868  0.19598325     0.75000
O425        O  0.09507840  0.46180310  0.09605245    -0.58400
O426        O  0.08728378  0.47833007  0.18236752    -0.48500
O427        O  0.11488574  0.47644154  0.13360983    -0.54900
C428        C  0.07318387  0.49611190  0.13567858     0.85200
O429        O  0.04688034  0.44572590  0.11445072    -0.56800
O430        O  0.08420705  0.44704284  0.17994975    -0.60000
In431      In  0.90920786  0.38270623  0.15040003     1.36900
C432        C  0.94722613  0.38556071  0.13878651     0.77600
O433        O  0.92237698  0.41396022  0.12501587    -0.60800
O434        O  0.91990522  0.41512372  0.17167821    -0.51700
C435        C  0.87341014  0.36672475  0.11699875     0.70300
O436        O  0.88104649  0.38371754  0.13260776    -0.46600
C437        C  0.89403747  0.36362693  0.20236727     0.75000
O438        O  0.93327355  0.38155264  0.11886994    -0.58400
O439        O  0.89584768  0.38150745  0.19488259    -0.48500
O440        O  0.94101972  0.38662040  0.16447636    -0.54900
C441        C  0.92434826  0.42536773  0.14750230     0.85200
O442        O  0.88371200  0.35670265  0.11914370    -0.56800
O443        O  0.89908343  0.35448709  0.18247459    -0.60000
In444      In  0.91053750  0.38667371  0.37577765     1.36900
C445        C  0.87635872  0.37108626  0.41245396     0.77600
O446        O  0.92827924  0.42204173  0.38981282    -0.60800
O447        O  0.91531541  0.41447519  0.34655791    -0.51700
C448        C  0.94835464  0.38995210  0.38940314     0.70300
O449        O  0.94129877  0.38802725  0.36343942    -0.46600
C450        C  0.89460108  0.36433816  0.32578532     0.75000
O451        O  0.88416045  0.35935874  0.40489636    -0.58400
O452        O  0.88812594  0.37616049  0.33721000    -0.48500
O453        O  0.88683198  0.39027723  0.40257803    -0.54900
C454        C  0.92488181  0.42902161  0.36613247     0.85200
O455        O  0.93519924  0.38862994  0.40922478    -0.56800
O456        O  0.90798335  0.36224981  0.34146786    -0.60000
C457        C  0.87448159  0.36050180  0.27965526    -0.21200
C458        C  0.88884506  0.35617299  0.29508642    -0.09300
C459        C  0.90074765  0.34865601  0.27922112     0.29600
C460        C  0.90024207  0.34826067  0.24818985    -0.21200
C461        C  0.88817457  0.35565175  0.23293913    -0.09300
C462        C  0.87432073  0.36051501  0.24888723     0.29600
F463        F  0.86222657  0.36741631  0.23473981    -0.19800
H464        H  0.86489975  0.36600418  0.29128075     0.17900
H465        H  0.91106100  0.34449746  0.23622893     0.18000
F466        F  0.91460281  0.34400052  0.29334615    -0.19800
C467        C  0.00505591  0.39884246  0.15168131    -0.21200
C468        C  0.01546000  0.41085947  0.12606312    -0.09300
C469        C  0.00253101  0.41066081  0.10250012     0.29600
C470        C  0.97980686  0.40040909  0.10573660    -0.21200
C471        C  0.96972578  0.39061769  0.13268444    -0.09300
C472        C  0.98241924  0.38909895  0.15522741     0.29600
F473        F  0.97321302  0.37957185  0.18149323    -0.19800
H474        H  0.01465682  0.39885007  0.17017712     0.17900
H475        H  0.97039651  0.40178619  0.08809256     0.18000
F476        F  0.01201245  0.42178384  0.07718734    -0.19800
C477        C  0.00561966  0.41820931  0.42049995    -0.21200
C478        C  0.01716873  0.41693501  0.39605795    -0.09300
C479        C  0.00521702  0.40292558  0.37239616     0.29600
C480        C  0.98241128  0.39219640  0.37206725    -0.21200
C481        C  0.97102254  0.39537905  0.39498108    -0.09300
C482        C  0.98271032  0.40758486  0.41999877     0.29600
F483        F  0.97233227  0.41125068  0.44244550    -0.19800
H484        H  0.01438950  0.42894277  0.43896149     0.17900
H485        H  0.97376076  0.38276710  0.35262189     0.18000
F486        F  0.01552190  0.40126823  0.34814497    -0.19800
C487        C  0.08979671  0.44901817  0.27657948    -0.21200
C488        C  0.09232931  0.46789309  0.29056840    -0.09300
C489        C  0.09596225  0.48578556  0.27312284     0.29600
C490        C  0.09562834  0.48426338  0.24248961    -0.21200
C491        C  0.09151137  0.46489735  0.22829659    -0.09300
C492        C  0.08927872  0.44743275  0.24556522     0.29600
F493        F  0.08557485  0.42855368  0.23268683    -0.19800
H494        H  0.08707063  0.43508576  0.28960460     0.17900
H495        H  0.09774035  0.49813452  0.22986190     0.18000
F496        F  0.09903313  0.50458412  0.28556061    -0.19800
C497        C  0.17355490  0.50938794  0.08242969    -0.21200
C498        C  0.17129476  0.51233459  0.05220022    -0.09300
C499        C  0.15023795  0.50001837  0.03949785     0.29600
C500        C  0.13198097  0.48615058  0.05687569    -0.21200
C501        C  0.13410956  0.48419306  0.08733626    -0.09300
C502        C  0.15520524  0.49558328  0.09987516     0.29600
F503        F  0.15805848  0.49389672  0.12918954    -0.19800
H504        H  0.18949259  0.51834998  0.09281666     0.17900
H505        H  0.11597470  0.47762508  0.04660354     0.18000
F506        F  0.14703251  0.50118637  0.01024992    -0.19800
C507        C  0.17004055  0.53089955  0.44204294    -0.21200
C508        C  0.17694147  0.51892161  0.45815336    -0.09300
C509        C  0.16575868  0.49591620  0.45495036     0.29600
C510        C  0.14693359  0.48506008  0.43723789    -0.21200
C511        C  0.13926783  0.49707276  0.42236362    -0.09300
C512        C  0.15140945  0.52022067  0.42441054     0.29600
F513        F  0.14470630  0.53265425  0.41069645    -0.19800
H514        H  0.17877894  0.54858611  0.44377704     0.17900
H515        H  0.13797414  0.46728832  0.43594523     0.18000
F516        F  0.17205515  0.48389316  0.47062534    -0.19800
C517        C  0.19471464  0.60879189  0.99590819    -0.21200
C518        C  0.21122950  0.62721626  0.01125568    -0.09300
C519        C  0.22656382  0.62447206  0.02729337     0.29600
C520        C  0.22562634  0.60424216  0.02740459    -0.21200
C521        C  0.20956349  0.58592547  0.01137504    -0.09300
C522        C  0.19394156  0.58851919  0.99570474     0.29600
F523        F  0.17608591  0.57051277  0.48371789    -0.19800
H524        H  0.18131556  0.60916011  0.48605948     0.17900
H525        H  0.23760812  0.60296469  0.04039547     0.18000
F526        F  0.24231303  0.64121542  0.04362842    -0.19800
C527        C  0.93311531  0.47853079  0.11633637    -0.21200
C528        C  0.93114226  0.48855384  0.14199226    -0.09300
C529        C  0.93009087  0.47910947  0.16968059     0.29600
C530        C  0.92917294  0.45908639  0.17136526    -0.21200
C531        C  0.92959281  0.44827602  0.14558747    -0.09300
C532        C  0.93246879  0.45859828  0.11805493     0.29600
F533        F  0.93366305  0.44902703  0.09266637    -0.19800
H534        H  0.93430594  0.48566923  0.09482273     0.17900
H535        H  0.92721752  0.45161996  0.19281810     0.18000
F536        F  0.92910514  0.48873398  0.19513527    -0.19800
C537        C  0.89974271  0.54738215  0.23891019    -0.21200
C538        C  0.91959628  0.55679074  0.22328994    -0.09300
C539        C  0.93939078  0.56878872  0.23891211     0.29600
C540        C  0.93933118  0.56979068  0.26970560    -0.21200
C541        C  0.91958652  0.55872096  0.28552164    -0.09300
C542        C  0.89969246  0.54829789  0.26987929     0.29600
F543        F  0.88029515  0.53747296  0.28448904    -0.19800
H544        H  0.88431670  0.53806169  0.22730748     0.17900
H545        H  0.95486288  0.57820281  0.28125305     0.18000
F546        F  0.95889130  0.57868440  0.22449102    -0.19800
C547        C  0.92125786  0.45735369  0.33873739    -0.21200
C548        C  0.93004318  0.45187209  0.36262121    -0.09300
C549        C  0.94139350  0.46763379  0.38484582     0.29600
C550        C  0.94249508  0.48780018  0.38421830    -0.21200
C551        C  0.93219488  0.49258608  0.36161615    -0.09300
C552        C  0.92225489  0.47750898  0.33818906     0.29600
F553        F  0.91227304  0.48155676  0.31572321    -0.19800
H554        H  0.91249648  0.44554434  0.32131507     0.17900
H555        H  0.95047823  0.49922716  0.40230941     0.18000
F556        F  0.95047516  0.46317858  0.40803848    -0.19800
C557        C  0.06557762  0.52668819  0.41640850    -0.21200
C558        C  0.06305101  0.51613848  0.38908535    -0.09300
C559        C  0.05936081  0.52492616  0.36352071     0.29600
C560        C  0.06011507  0.54480377  0.36491410    -0.21200
C561        C  0.06453060  0.55636144  0.39166977    -0.09300
C562        C  0.06627295  0.54669926  0.41779373     0.29600
F563        F  0.06975162  0.55701357  0.44429320    -0.19800
H564        H  0.06814560  0.52004020  0.43646607     0.17900
H565        H  0.05831665  0.55168296  0.34456200     0.18000
F566        F  0.05648496  0.51516838  0.33669829    -0.19800
C567        C  0.16300738  0.66984769  0.47124998    -0.21200
C568        C  0.17660921  0.66159973  0.46439266    -0.09300
C569        C  0.17218411  0.64842524  0.43926504     0.29600
C570        C  0.15410268  0.64317440  0.42157715    -0.21200
C571        C  0.13990901  0.65071644  0.42878385    -0.09300
C572        C  0.14472637  0.66444791  0.45367538     0.29600
F573        F  0.13138698  0.67191036  0.46169248    -0.19800
H574        H  0.15851230  0.66757319  0.00179353     0.17900
H575        H  0.15079582  0.63248381  0.40257395     0.18000
F576        F  0.18509249  0.64026619  0.43222217    -0.19800
C577        C  0.98745055  0.59088358  0.43195181    -0.21200
C578        C  0.97750495  0.59514303  0.40833643    -0.09300
C579        C  0.99061770  0.61306695  0.38962211     0.29600
C580        C  0.01347791  0.62414587  0.39185883    -0.21200
C581        C  0.02341382  0.61749844  0.41274428    -0.09300
C582        C  0.01020633  0.60193879  0.43421190     0.29600
F583        F  0.01919091  0.59555121  0.45535254    -0.19800
H584        H  0.97770147  0.57741910  0.44696169     0.17900
H585        H  0.02327838  0.63616723  0.37516447     0.18000
F586        F  0.98161283  0.61804329  0.36684554    -0.19800
C587        C  0.16944247  0.64082114  0.07577968    -0.21200
C588        C  0.17930685  0.66123446  0.06174686    -0.09300
C589        C  0.17160061  0.67551329  0.06779358     0.29600
C590        C  0.15346897  0.66880548  0.08642593    -0.21200
C591        C  0.14341986  0.64819134  0.10023522    -0.09300
C592        C  0.15204655  0.63452763  0.09537200     0.29600
F593        F  0.14306698  0.61456221  0.10851250    -0.19800
H594        H  0.17516374  0.62967233  0.07140509     0.17900
H595        H  0.14718434  0.67959183  0.08984958     0.18000
F596        F  0.18092653  0.69548802  0.05462176    -0.19800
C597        C  0.01603929  0.59791901  0.08764124    -0.21200
C598        C  0.02740156  0.61308675  0.11040250    -0.09300
C599        C  0.01585265  0.61964549  0.12878255     0.29600
C600        C  0.99294109  0.60884841  0.12697422    -0.21200
C601        C  0.98133311  0.59141102  0.10689303    -0.09300
C602        C  0.99324148  0.58726053  0.08572332     0.29600
F603        F  0.98274396  0.57129385  0.06503266    -0.19800
H604        H  0.02460936  0.59285034  0.07287498     0.17900
H605        H  0.98422246  0.61249780  0.14343030     0.18000
F606        F  0.02626721  0.63434670  0.15095311    -0.19800
C607        C  0.10061444  0.64371900  0.24913000    -0.21200
C608        C  0.08132654  0.62979182  0.23333909    -0.09300
C609        C  0.06164567  0.61720036  0.24911119     0.29600
C610        C  0.06162939  0.61752998  0.27998129    -0.21200
C611        C  0.08110811  0.63050572  0.29586086    -0.09300
C612        C  0.10056874  0.64408396  0.28014493     0.29600
F613        F  0.11974840  0.65671758  0.29465485    -0.19800
H614        H  0.11597108  0.65358587  0.23749761     0.17900
H615        H  0.04634472  0.60712072  0.29152770     0.18000
F616        F  0.04245376  0.60411644  0.23478735    -0.19800
C617        C  0.06803082  0.54327691  0.16309301    -0.21200
C618        C  0.07370545  0.55638708  0.13772983    -0.09300
C619        C  0.07801211  0.54895511  0.11116598     0.29600
C620        C  0.07723216  0.52895631  0.11040415    -0.21200
C621        C  0.07192304  0.51604379  0.13593446    -0.09300
C622        C  0.06707157  0.52323131  0.16227894     0.29600
F623        F  0.06256771  0.51152114  0.18766473    -0.19800
H624        H  0.06475163  0.54876337  0.18378233     0.17900
H625        H  0.08117727  0.52375098  0.08998995     0.18000
F626        F  0.08398059  0.56142403  0.08633990    -0.19800
C627        C  0.82959414  0.47896380  0.07085402    -0.21200
C628        C  0.82324865  0.49149636  0.05464511    -0.09300
C629        C  0.83588440  0.51455012  0.05693397     0.29600
C630        C  0.85485191  0.52477643  0.07454355    -0.21200
C631        C  0.86150193  0.51222785  0.09032329    -0.09300
C632        C  0.84831933  0.48909112  0.08871386     0.29600
F633        F  0.85399320  0.47612698  0.10327164    -0.19800
H634        H  0.82032033  0.46124485  0.06902810     0.17900
H635        H  0.86463688  0.54253405  0.07525507     0.18000
F636        F  0.83069787  0.52721297  0.04071185    -0.19800
C637        C  0.85256659  0.49118507  0.42511041    -0.21200
C638        C  0.86233875  0.51380848  0.41958371    -0.09300
C639        C  0.85251543  0.52497425  0.43135425     0.29600
C640        C  0.83349157  0.51364710  0.44863961    -0.21200
C641        C  0.82427685  0.49118630  0.45491254    -0.09300
C642        C  0.83397203  0.48006860  0.44288231     0.29600
F643        F  0.82563168  0.45846041  0.44857770    -0.19800
H644        H  0.85969871  0.48210015  0.41633029     0.17900
H645        H  0.82648885  0.52262830  0.45818403     0.18000
F646        F  0.86158541  0.54685997  0.42693111    -0.19800
C647        C  0.78469883  0.39262603  0.98332513    -0.21200
C648        C  0.78451921  0.38347258  0.01088464    -0.09300
C649        C  0.78473571  0.39461753  0.03673436     0.29600
C650        C  0.78542842  0.41469262  0.03500600    -0.21200
C651        C  0.78553454  0.42382073  0.00748590    -0.09300
C652        C  0.78507238  0.41255985  0.98159045     0.29600
F653        F  0.78430480  0.42177681  0.45337818    -0.19800
H654        H  0.78396061  0.38523956  0.46151702     0.17900
H655        H  0.78564064  0.42303883  0.05521146     0.18000
F656        F  0.78393309  0.38588555  0.06364858    -0.19800
C657        C  0.82648735  0.33554675  0.06264493    -0.21200
C658        C  0.81875608  0.35007988  0.06018122    -0.09300
C659        C  0.82899313  0.36972676  0.07624316     0.29600
C660        C  0.84644228  0.37462137  0.09492093    -0.21200
C661        C  0.85436024  0.36022270  0.09753536    -0.09300
C662        C  0.84431938  0.34064012  0.08099110     0.29600
F663        F  0.85177587  0.32658089  0.08229137    -0.19800
H664        H  0.81897848  0.32049033  0.04988257     0.17900
H665        H  0.85392891  0.38991263  0.10712148     0.18000
F666        F  0.82193882  0.38407937  0.07419674    -0.19800
C667        C  0.84407904  0.34198105  0.44137704    -0.21200
C668        C  0.85632851  0.36354170  0.43047375    -0.09300
C669        C  0.84883874  0.37808161  0.43604968     0.29600
C670        C  0.82999034  0.37139770  0.45264398    -0.21200
C671        C  0.81794503  0.35010928  0.46402174    -0.09300
C672        C  0.82497149  0.33523653  0.45801763     0.29600
F673        F  0.81223100  0.31276791  0.96595845    -0.19800
H674        H  0.84937642  0.33045033  0.43725309     0.17900
H675        H  0.82488899  0.38306099  0.45688215     0.18000
F676        F  0.85971826  0.39896338  0.42558023    -0.19800
C677        C  0.55825285  0.94469699  0.24018095    -0.21200
C678        C  0.55218326  0.92524689  0.22469205    -0.09300
C679        C  0.54857204  0.90669993  0.24063741     0.29600
C680        C  0.54890048  0.90714230  0.27176804    -0.21200
C681        C  0.55310929  0.92615011  0.28724064    -0.09300
C682        C  0.55898748  0.94528272  0.27102475     0.29600
F683        F  0.56455052  0.96440751  0.28498602    -0.19800
H684        H  0.56163304  0.95934491  0.22834812     0.17900
H685        H  0.54452181  0.89225196  0.28370882     0.18000
F686        F  0.54295832  0.88769144  0.22633693    -0.19800
C687        C  0.59263840  0.02016937  0.09554741    -0.21200
C688        C  0.60752126  0.03123256  0.11860782    -0.09300
C689        C  0.61349762  0.01929646  0.13699555     0.29600
C690        C  0.60261901  0.99630261  0.13458409    -0.21200
C691        C  0.58578433  0.98500544  0.11373942    -0.09300
C692        C  0.58199632  0.99731738  0.09290586     0.29600
F693        F  0.56661842  0.98715669  0.07151845    -0.19800
H694        H  0.58803722  0.02906920  0.08081305     0.17900
H695        H  0.60588703  0.98725236  0.15088319     0.18000
F696        F  0.62785802  0.02945313  0.15948998    -0.19800
C697        C  0.61379577  0.02029442  0.39723094    -0.21200
C698        C  0.60501117  0.03023307  0.41483095    -0.09300
C699        C  0.58691057  0.01673978  0.43300369     0.29600
C700        C  0.57634418  0.99384897  0.43082370    -0.21200
C701        C  0.58351878  0.98387851  0.41052379    -0.09300
C702        C  0.60321452  0.99731190  0.39511014     0.29600
F703        F  0.61119216  0.98841230  0.37597501    -0.19800
H704        H  0.62777138  0.03024168  0.38314324     0.17900
H705        H  0.56144208  0.98398116  0.44332938     0.18000
F706        F  0.57820656  0.02555852  0.45104250    -0.19800
C707        C  0.61519358  0.06834728  0.28294871    -0.21200
C708        C  0.62953153  0.08757478  0.29867238    -0.09300
C709        C  0.64535110  0.10609977  0.28291029     0.29600
C710        C  0.64536687  0.10584527  0.25182665    -0.21200
C711        C  0.62960466  0.08717381  0.23620936    -0.09300
C712        C  0.61514742  0.06810655  0.25212322     0.29600
F713        F  0.60019893  0.04946054  0.23790647    -0.19800
H714        H  0.60315317  0.05369549  0.29453551     0.17900
H715        H  0.65673762  0.12070519  0.24002751     0.18000
F716        F  0.65965150  0.12490072  0.29736340    -0.19800
C717        C  0.73207830  0.29180057  0.48947918    -0.21200
C718        C  0.74369805  0.30045965  0.01541833    -0.09300
C719        C  0.73305072  0.29082832  0.04245099     0.29600
C720        C  0.71353481  0.27035147  0.04282002    -0.21200
C721        C  0.70346603  0.25928781  0.01637461    -0.09300
C722        C  0.71201060  0.27187514  0.49010203     0.29600
F723        F  0.70065298  0.26427935  0.46445913    -0.19800
H724        H  0.73796737  0.30010657  0.46847618     0.17900
H725        H  0.70605865  0.26349599  0.06397598     0.18000
F726        F  0.74088916  0.30140036  0.06862109    -0.19800
C727        C  0.58442367  0.20647141  0.03070232    -0.21200
C728        C  0.58264561  0.22068711  0.01093927    -0.09300
C729        C  0.60016573  0.23597939  0.49291923     0.29600
C730        C  0.61938106  0.23529154  0.49412664    -0.21200
C731        C  0.62133607  0.21887949  0.01298279    -0.09300
C732        C  0.60364528  0.20562858  0.03188787     0.29600
F733        F  0.60533408  0.19275935  0.05247301    -0.19800
H734        H  0.57117535  0.19651610  0.04587887     0.17900
H735        H  0.63283447  0.24591346  0.47959790     0.18000
F736        F  0.59896101  0.24958327  0.47310174    -0.19800
C737        C  0.64731453  0.16282728  0.04929995    -0.21200
C738        C  0.65498207  0.18352731  0.06230748    -0.09300
C739        C  0.65941388  0.18602348  0.09283732     0.29600
C740        C  0.65556354  0.16796469  0.10992634    -0.21200
C741        C  0.64755075  0.14718207  0.09694048    -0.09300
C742        C  0.64371143  0.14487186  0.06624951     0.29600
F743        F  0.63553977  0.12506621  0.05274468    -0.19800
H744        H  0.64412601  0.16044684  0.02568137     0.17900
H745        H  0.65836057  0.17013781  0.13364412     0.18000
F746        F  0.66668938  0.20567669  0.10633664    -0.19800
C747        C  0.66821935  0.17675066  0.46724783    -0.21200
C748        C  0.65486189  0.18586806  0.46872848    -0.18900
C749        C  0.63639724  0.17738480  0.45051945     0.29600
C750        C  0.63128211  0.15992063  0.43127703    -0.21200
C751        C  0.64403604  0.15005649  0.43061691    -0.09300
C752        C  0.66274244  0.15880722  0.44861582     0.29600
F753        F  0.67553415  0.14987976  0.44847480    -0.19800
H754        H  0.68249731  0.18307369  0.48133841     0.17900
H755        H  0.61669509  0.15345624  0.41777260     0.18000
F756        F  0.62324700  0.18591252  0.45153104    -0.19800
C757        C  0.45508858  0.93484004  0.10963054    -0.21200
C758        C  0.44136487  0.92814665  0.13454022    -0.09300
C759        C  0.44749123  0.92136729  0.16002062     0.29600
C760        C  0.46668017  0.92073322  0.16012937    -0.21200
C761        C  0.48021197  0.92705335  0.13506295    -0.09300
C762        C  0.47440264  0.93441284  0.10983980     0.29600
F763        F  0.48710748  0.94084836  0.08519492    -0.19800
H764        H  0.45077863  0.94023727  0.08982071     0.17900
H765        H  0.47092114  0.91522608  0.17987910     0.18000
F766        F  0.43490277  0.91512467  0.18476747    -0.19800
C767        C  0.35320315  0.90769384  0.23412435    -0.21200
C768        C  0.36763957  0.92728570  0.21913820    -0.09300
C769        C  0.38076301  0.94644848  0.23582208     0.29600
C770        C  0.38087192  0.94558890  0.26663730    -0.21200
C771        C  0.36778607  0.92572262  0.28166954    -0.09300
C772        C  0.35321843  0.90687253  0.26521921     0.29600
F773        F  0.34027941  0.88735189  0.27893406    -0.19800
H774        H  0.34296093  0.89271277  0.22177993     0.17900
H775        H  0.39193324  0.96042382  0.27877483     0.18000
F776        F  0.39426988  0.96592848  0.22231078    -0.19800
C777        C  0.47086661  0.92837378  0.40119510    -0.21200
C778        C  0.48197601  0.92996623  0.37479267    -0.09300
C779        C  0.47336928  0.93188462  0.34781986     0.29600
C780        C  0.45391872  0.93200991  0.34735578    -0.21200
C781        C  0.44258656  0.93002709  0.37366603    -0.09300
C782        C  0.45124056  0.92822109  0.40069825     0.29600
F783        F  0.44041452  0.92552532  0.42653635    -0.19800
H784        H  0.47705214  0.92663120  0.42219770     0.17900
H785        H  0.44752571  0.93326887  0.32628942     0.18000
F786        F  0.48350517  0.93327303  0.32177938    -0.19800
C787        C  0.52052811  0.07485286  0.41065272    -0.21200
C788        C  0.51456169  0.08166062  0.38507035    -0.09300
C789        C  0.52819828  0.08787989  0.36004056     0.29600
C790        C  0.54741300  0.08744343  0.36072029    -0.21200
C791        C  0.55379343  0.08136395  0.38647238    -0.09300
C792        C  0.54011919  0.07487097  0.41152017     0.29600
F793        F  0.54582224  0.06897449  0.43689990    -0.19800
H794        H  0.51029040  0.07003564  0.43024997     0.17900
H795        H  0.55775244  0.09269992  0.34123744     0.18000
F796        F  0.52348194  0.09520356  0.33514755    -0.19800
C797        C  0.51272984  0.15700887  0.43440121    -0.21200
C798        C  0.49023941  0.14814880  0.42961638    -0.09300
C799        C  0.48012997  0.15891262  0.44162510     0.29600
C800        C  0.49251327  0.17830129  0.45805824    -0.21200
C801        C  0.51480285  0.18652553  0.46385877    -0.09300
C802        C  0.52483891  0.17579035  0.45168109     0.29600
F803        F  0.54639191  0.18349650  0.45641388    -0.19800
H804        H  0.52088051  0.14897338  0.42538526     0.17900
H805        H  0.48447872  0.18632825  0.46745792     0.18000
F806        F  0.45845989  0.15080223  0.43742227    -0.19800
C807        C  0.39324330  0.01634196  0.39093314    -0.21200
C808        C  0.41117766  0.02779697  0.41015890    -0.09300
C809        C  0.41621213  0.01558188  0.42951129     0.29600
C810        C  0.40580731  0.99275952  0.42639108    -0.21200
C811        C  0.38988301  0.98158603  0.40443583    -0.09300
C812        C  0.38250557  0.99337422  0.38823448     0.29600
F813        F  0.36657856  0.98313441  0.36757017    -0.19800
H814        H  0.38878477  0.02526798  0.37604738     0.17900
H815        H  0.41143950  0.98402462  0.43971650     0.18000
F816        F  0.43265064  0.02581120  0.44952264    -0.19800
C817        C  0.51703239  0.19227314  0.08949240    -0.21200
C818        C  0.51356987  0.18901744  0.05889398    -0.09300
C819        C  0.49651905  0.16867303  0.04848513     0.29600
C820        C  0.48396712  0.15154955  0.06802299    -0.21200
C821        C  0.48830294  0.15411819  0.09842118    -0.09300
C822        C  0.50459834  0.17490908  0.10920931     0.29600
F823        F  0.50883635  0.17831644  0.13860613    -0.19800
H824        H  0.52986373  0.20797331  0.09798720     0.17900
H825        H  0.47153927  0.13582395  0.05906644     0.18000
F826        F  0.49200312  0.16514495  0.01928235    -0.19800
C827        C  0.42658121  0.02477835  0.09220252    -0.21200
C828        C  0.41942092  0.03474550  0.11254118    -0.09300
C829        C  0.39953211  0.02137592  0.12757166     0.29600
C830        C  0.38838480  0.99842769  0.12451164    -0.21200
C831        C  0.39696981  0.98840011  0.10675827    -0.09300
C832        C  0.41556818  0.00188741  0.08933129     0.29600
F833        F  0.42415482  0.99298513  0.07121825    -0.19800
H834        H  0.44168093  0.03462096  0.08002879     0.17900
H835        H  0.37411065  0.98847755  0.13814155     0.18000
F836        F  0.39191467  0.03021654  0.14736148    -0.19800
C837        C  0.45072258  0.10825710  0.24955530    -0.21200
C838        C  0.44800137  0.09009106  0.23338233    -0.09300
C839        C  0.44353685  0.07104236  0.24863609     0.29600
C840        C  0.44307485  0.07064007  0.27939906    -0.21200
C841        C  0.44741712  0.08927121  0.29577910    -0.09300
C842        C  0.45058030  0.10795927  0.28062401     0.29600
F843        F  0.45501654  0.12636923  0.29563304    -0.19800
H844        H  0.45436759  0.12316435  0.23821181     0.17900
H845        H  0.44033101  0.05593630  0.29045664     0.18000
F846        F  0.44055773  0.05304628  0.23385815    -0.19800
C847        C  0.52602210  0.08351704  0.12336056    -0.21200
C848        C  0.52212844  0.09457269  0.14607566    -0.09300
C849        C  0.53728388  0.10415057  0.16929467     0.29600
C850        C  0.55601671  0.10271937  0.16959361    -0.21200
C851        C  0.55993097  0.09166834  0.14690576    -0.09300
C852        C  0.54471305  0.08198259  0.12373808     0.29600
F853        F  0.54774004  0.07090594  0.10156411    -0.19800
H854        H  0.51448896  0.07587889  0.10536480     0.17900
H855        H  0.56753928  0.11038733  0.18757298     0.18000
F856        F  0.53413839  0.11501685  0.19164407    -0.19800
C857        C  0.49488995  0.84468624  0.09799820    -0.21200
C858        C  0.50842319  0.86565147  0.08555708    -0.09300
C859        C  0.50817640  0.86792972  0.05474676     0.29600
C860        C  0.49501097  0.84967995  0.03687153    -0.21200
C861        C  0.48194113  0.82860374  0.04906897    -0.09300
C862        C  0.48181379  0.82630366  0.07996905     0.29600
F863        F  0.46825831  0.80658484  0.09286705    -0.19800
H864        H  0.49415215  0.84260662  0.12169729     0.17900
H865        H  0.49505670  0.85218977  0.01348618     0.18000
F866        F  0.51977198  0.88799949  0.04186772    -0.19800
C867        C  0.50466092  0.83980640  0.45835070    -0.21200
C868        C  0.48274952  0.82467879  0.45132665    -0.09300
C869        C  0.47369047  0.82773624  0.42572470     0.29600
C870        C  0.48606356  0.84657606  0.40845823    -0.21200
C871        C  0.50769376  0.86259046  0.41644152    -0.09300
C872        C  0.51706086  0.85867451  0.44121531     0.29600
F873        F  0.53781148  0.87351335  0.44974738    -0.19800
H874        H  0.51148751  0.83756861  0.98108731     0.17900
H875        H  0.47841355  0.84901588  0.38941138     0.18000
F876        F  0.45272114  0.81286433  0.41799544    -0.19800
C877        C  0.26955191  0.71440143  0.49122054    -0.21200
C878        C  0.25135987  0.71217623  0.00876544    -0.09300
C879        C  0.25305490  0.73167269  0.01981693     0.29600
C880        C  0.27285798  0.75203172  0.01811848    -0.21200
C881        C  0.29153508  0.75412165  0.00419313    -0.09300
C882        C  0.28902276  0.73487289  0.48850234     0.29600
F883        F  0.30516792  0.73598219  0.47133971    -0.19800
H884        H  0.26856302  0.70048289  0.47994294     0.17900
H885        H  0.27309923  0.76629165  0.02688900     0.18000
F886        F  0.23539929  0.73148175  0.03131897    -0.19800
C887        C  0.39240112  0.80872017  0.98508413    -0.21200
C888        C  0.37478582  0.79458330  0.00355198    -0.09300
C889        C  0.37745541  0.78050071  0.02262178     0.29600
C890        C  0.39659735  0.77967458  0.02190593    -0.21200
C891        C  0.41390979  0.79321093  0.00275946    -0.09300
C892        C  0.41181306  0.80814401  0.98475913     0.29600
F893        F  0.42784925  0.82121786  0.46412992    -0.19800
H894        H  0.39059013  0.81906409  0.46882378     0.17900
H895        H  0.39798105  0.76862648  0.03671190     0.18000
F896        F  0.36177955  0.76778783  0.04263062    -0.19800
C897        C  0.35565922  0.83132345  0.42554727    -0.21200
C898        C  0.33968569  0.82518184  0.44756545    -0.09300
C899        C  0.32913406  0.83715299  0.45065241     0.29600
C900        C  0.33535242  0.85574011  0.43313794    -0.21200
C901        C  0.35168872  0.86227429  0.41146458    -0.09300
C902        C  0.36134867  0.84944068  0.40726342     0.29600
F903        F  0.37719181  0.85504947  0.38657280    -0.19800
H904        H  0.36400990  0.82245255  0.42299439     0.17900
H905        H  0.32774335  0.86523342  0.43692077     0.18000
F906        F  0.31371579  0.83166030  0.47192176    -0.19800
C907        C  0.33658396  0.83043944  0.07299058    -0.21200
C908        C  0.34260111  0.83313208  0.04293365    -0.09300
C909        C  0.35328713  0.85461626  0.03113579     0.29600
C910        C  0.35758028  0.87262504  0.04890823    -0.21200
C911        C  0.35183674  0.86986539  0.07895780    -0.09300
C912        C  0.34124999  0.84854037  0.09083509     0.29600
F913        F  0.33541606  0.84517049  0.11978664    -0.19800
H914        H  0.32855916  0.81430074  0.08291507     0.17900
H915        H  0.36617362  0.88891658  0.03935917     0.18000
F916        F  0.35946361  0.85846570  0.00237494    -0.19800
C917        C  0.45843687  0.52987319  0.10669733    -0.21200
C918        C  0.44449025  0.52346274  0.13136453    -0.09300
C919        C  0.45149018  0.53658613  0.15700411     0.29600
C920        C  0.47175176  0.55610789  0.15747332    -0.21200
C921        C  0.48523912  0.56305619  0.13233839    -0.09300
C922        C  0.47861792  0.54956543  0.10705005     0.29600
F923        F  0.49121449  0.55571743  0.08231089    -0.19800
H924        H  0.45346289  0.51994882  0.08679415     0.17900
H925        H  0.47647755  0.56622390  0.17718060     0.18000
F926        F  0.43848923  0.53104243  0.18129709    -0.19800
C927        C  0.54867214  0.65264665  0.26625797    -0.21200
C928        C  0.55105360  0.63688151  0.28157711    -0.09300
C929        C  0.55567573  0.62277083  0.26551268     0.29600
C930        C  0.55658452  0.62361606  0.23473692    -0.21200
C931        C  0.55278266  0.63838170  0.21924488    -0.09300
C932        C  0.54950645  0.65342106  0.23529965     0.29600
F933        F  0.54589171  0.66802072  0.22114705    -0.19800
H934        H  0.54509003  0.66366054  0.27814764     0.17900
H935        H  0.55927484  0.61192140  0.22296975     0.18000
F936        F  0.55843102  0.60748084  0.27938927    -0.19800
C937        C  0.37937623  0.44535165  0.26335442    -0.21200
C938        C  0.36589779  0.45131494  0.27814479    -0.09300
C939        C  0.35201738  0.45568720  0.26138278     0.29600
C940        C  0.35284419  0.45553815  0.23034841    -0.21200
C941        C  0.36748403  0.45103349  0.21567737    -0.09300
C942        C  0.38013634  0.44510291  0.23253821     0.29600
F943        F  0.39391327  0.43984511  0.21929713    -0.19800
H944        H  0.39004418  0.44165176  0.27570788     0.17900
H945        H  0.34297516  0.46019941  0.21785894     0.18000
F946        F  0.33883683  0.46161206  0.27484905    -0.19800
C947        C  0.44988638  0.53115826  0.39311597    -0.21200
C948        C  0.43958218  0.52188836  0.36610302    -0.09300
C949        C  0.44932573  0.53306280  0.33962015     0.29600
C950        C  0.46869730  0.55352596  0.34046098    -0.21200
C951        C  0.47870052  0.56301575  0.36760225    -0.09300
C952        C  0.46929114  0.55149297  0.39393992     0.29600
F953        F  0.47846815  0.56009391  0.42059991    -0.19800
H954        H  0.44264016  0.52288574  0.41380740     0.17900
H955        H  0.47578208  0.56202628  0.31987444     0.18000
F956        F  0.43999456  0.52447506  0.31299976    -0.19800
C957        C  0.61868133  0.61785763  0.37877558    -0.21200
C958        C  0.61355353  0.60091132  0.39909800    -0.09300
C959        C  0.59798474  0.59660866  0.42127955     0.29600
C960        C  0.58527767  0.60626021  0.42006621    -0.21200
C961        C  0.58823415  0.62084195  0.39727268    -0.09300
C962        C  0.60620235  0.62798894  0.37803649     0.29600
F963        F  0.60996435  0.64266051  0.35632194    -0.19800
H964        H  0.63073514  0.62165269  0.36161762     0.17900
H965        H  0.57184520  0.60088112  0.43553635     0.18000
F966        F  0.59337323  0.58124252  0.44231865    -0.19800
C967        C  0.39391318  0.38991132  0.39152804    -0.21200
C968        C  0.41192289  0.39861228  0.41081006    -0.09300
C969        C  0.41562903  0.41595393  0.42979902     0.29600
C970        C  0.40360236  0.42629916  0.42642344    -0.21200
C971        C  0.38766896  0.41958548  0.40415459    -0.09300
C972        C  0.38191580  0.40033390  0.38806190     0.29600
F973        F  0.36636635  0.39295606  0.36670225    -0.19800
H974        H  0.39051968  0.37643630  0.37686263     0.17900
H975        H  0.40815207  0.44083240  0.43954888     0.18000
F976        F  0.43226068  0.42432543  0.44967882    -0.19800
C977        C  0.54058719  0.45191497  0.36548483    -0.21200
C978        C  0.52298778  0.45092587  0.38092220    -0.09300
C979        C  0.52596506  0.47006540  0.39461106     0.29600
C980        C  0.54600851  0.48979427  0.39236101    -0.21200
C981        C  0.56355306  0.49085040  0.37674557    -0.09300
C982        C  0.56075552  0.47162217  0.36355649     0.29600
F983        F  0.57751763  0.47171570  0.34919930    -0.19800
H984        H  0.53878625  0.43736527  0.35498957     0.17900
H985        H  0.54781111  0.50429660  0.40304197     0.18000
F986        F  0.50965944  0.46974341  0.41051208    -0.19800
C987        C  0.61741960  0.61448211  0.11471920    -0.21200
C988        C  0.60912061  0.59491573  0.09830652    -0.09300
C989        C  0.59219651  0.58950515  0.07793617     0.29600
C990        C  0.58160234  0.60139471  0.07751513    -0.21200
C991        C  0.58768411  0.61892428  0.09725839    -0.09300
C992        C  0.60683217  0.62649916  0.11417891     0.29600
F993        F  0.61389074  0.64397726  0.13263572    -0.19800
H994        H  0.63069252  0.61927842  0.13018986     0.17900
H995        H  0.56723254  0.59547752  0.06371149     0.18000
F996        F  0.58437503  0.57139301  0.06051843    -0.19800
C997        C  0.61350208  0.56363988  0.23745868    -0.21200
C998        C  0.62984400  0.56271260  0.22132802    -0.09300
C999        C  0.64755462  0.56398211  0.23679560     0.29600
C1000       C  0.64794099  0.56459193  0.26787800    -0.21200
C1001       C  0.63060807  0.56371843  0.28390314    -0.09300
C1002       C  0.61380430  0.56410625  0.26829125     0.29600
F1003       F  0.59717185  0.56417971  0.28279858    -0.19800
H1004       H  0.59981731  0.56301998  0.22623593     0.17900
H1005       H  0.66116799  0.56451419  0.27939895     0.18000
F1006       F  0.66393837  0.56362524  0.22205643    -0.19800
C1007       C  0.40822976  0.42132922  0.08091210    -0.21200
C1008       C  0.39111375  0.41684504  0.10050591    -0.09300
C1009       C  0.38298076  0.39841849  0.11909048     0.29600
C1010       C  0.39413795  0.38706026  0.12140938    -0.21200
C1011       C  0.41332213  0.39378086  0.10499464    -0.09300
C1012       C  0.41915132  0.40978880  0.08287589     0.29600
F1013       F  0.43679080  0.41589801  0.06520816    -0.19800
H1014       H  0.41447240  0.43512064  0.06586221     0.17900
H1015       H  0.38906844  0.37456176  0.13824785     0.18000
F1016       F  0.36608478  0.39316622  0.13778975    -0.19800
C1017       C  0.45075170  0.39695451  0.24816956    -0.21200
C1018       C  0.44911439  0.37877382  0.23331991    -0.09300
C1019       C  0.44673539  0.36108073  0.25027125     0.29600
C1020       C  0.44709917  0.36223635  0.28138809    -0.21200
C1021       C  0.44994050  0.38104283  0.29601754    -0.09300
C1022       C  0.45115339  0.39813323  0.27896336     0.29600
F1023       F  0.45323461  0.41634973  0.29197621    -0.19800
H1024       H  0.45242777  0.41079025  0.23588364     0.17900
H1025       H  0.44603599  0.34880504  0.29399474     0.18000
F1026       F  0.44477460  0.34304312  0.23691018    -0.19800
C1027       C  0.54601086  0.48085981  0.16471324    -0.21200
C1028       C  0.55469326  0.49051317  0.13714272    -0.09300
C1029       C  0.54297949  0.48007596  0.11127255     0.29600
C1030       C  0.52330015  0.45999077  0.11302340    -0.21200
C1031       C  0.51502715  0.44995244  0.14049166    -0.09300
C1032       C  0.52632733  0.46076064  0.16646849     0.29600
F1033       F  0.51870349  0.45173558  0.19350751    -0.19800
H1034       H  0.55468938  0.48865418  0.18493907     0.17900
H1035       H  0.51487875  0.45196111  0.09273753     0.18000
F1036       F  0.55091855  0.48875680  0.08419626    -0.19800
C1037       C  0.43797538  0.73287055  0.99277953    -0.21200
C1038       C  0.45547059  0.75212643  0.00536594    -0.09300
C1039       C  0.47434954  0.75166007  0.01320419     0.29600
C1040       C  0.47446453  0.73201991  0.01208569    -0.21200
C1041       C  0.45600157  0.71217970  0.00261984    -0.09300
C1042       C  0.43830154  0.71338239  0.99089925     0.29600
F1043       F  0.42228593  0.69662523  0.47549206    -0.19800
H1044       H  0.42487219  0.73325231  0.48182399     0.17900
H1045       H  0.48923939  0.73242495  0.01859589     0.18000
F1046       F  0.49306433  0.77032240  0.02115719    -0.19800
C1047       C  0.48543533  0.66905933  0.42791513    -0.21200
C1048       C  0.48442612  0.66504702  0.45850211    -0.09300
C1049       C  0.49709807  0.65678513  0.46994235     0.29600
C1050       C  0.50987481  0.65221348  0.45134749    -0.21200
C1051       C  0.51010029  0.65520415  0.42072218    -0.09300
C1052       C  0.49791848  0.66394508  0.40910391     0.29600
F1053       F  0.49773857  0.66718083  0.37958449    -0.19800
H1054       H  0.47598478  0.67547662  0.41843269     0.17900
H1055       H  0.51896936  0.64542642  0.46095786     0.18000
F1056       F  0.49643457  0.65229644  0.99998584    -0.19800
C1057       C  0.50483055  0.67855140  0.05184858    -0.21200
C1058       C  0.48190986  0.66682062  0.05479538    -0.09300
C1059       C  0.47208399  0.65061480  0.07651385     0.29600
C1060       C  0.48483566  0.64526629  0.09381122    -0.21200
C1061       C  0.50762824  0.65569867  0.08944087    -0.09300
C1062       C  0.51763868  0.67285550  0.06870263     0.29600
F1063       F  0.53952434  0.68339312  0.06372747    -0.19800
H1064       H  0.51264875  0.69120471  0.03513886     0.17900
H1065       H  0.47663174  0.63219231  0.10986199     0.18000
F1066       F  0.45008639  0.63963556  0.08056366    -0.19800
C1067       C  0.27850358  0.54059733  0.03346954    -0.21200
C1068       C  0.28929456  0.54381345  0.00607064    -0.09300
C1069       C  0.28134442  0.54993898  0.48014319     0.29600
C1070       C  0.26141834  0.54927736  0.48236781    -0.21200
C1071       C  0.24916416  0.54360299  0.01041368    -0.09300
C1072       C  0.25898039  0.54084323  0.03578493     0.29600
F1073       F  0.25067337  0.53971782  0.06315831    -0.19800
H1074       H  0.28540743  0.53861217  0.05353183     0.17900
H1075       H  0.25543772  0.55347272  0.46305942     0.18000
F1076       F  0.29245804  0.55635976  0.45416647    -0.19800
C1077       C  0.38996685  0.58914579  0.01452373    -0.21200
C1078       C  0.37214109  0.58763744  0.99911442    -0.09300
C1079       C  0.37599670  0.60708590  0.48351037     0.29600
C1080       C  0.39620636  0.62681275  0.48494249    -0.21200
C1081       C  0.41303296  0.62818495  0.00233867    -0.09300
C1082       C  0.41014877  0.60916909  0.01632826     0.29600
F1083       F  0.42635442  0.60998852  0.03284800    -0.19800
H1084       H  0.38804683  0.57495663  0.02611201     0.17900
H1085       H  0.39806588  0.64076577  0.47279403     0.18000
F1086       F  0.35974919  0.60645359  0.46723301    -0.19800
C1087       C  0.33723657  0.51699147  0.07346294    -0.21200
C1088       C  0.33990218  0.51753627  0.04261337    -0.09300
C1089       C  0.34782566  0.50487944  0.02986368     0.29600
C1090       C  0.35337399  0.49245458  0.04762610    -0.21200
C1091       C  0.35156265  0.49261148  0.07849360    -0.09300
C1092       C  0.34317198  0.50483059  0.09130601     0.29600
F1093       F  0.34078848  0.50512469  0.12105538    -0.19800
H1094       H  0.33103186  0.52642513  0.08384311     0.17900
H1095       H  0.35985762  0.48327441  0.03720123     0.18000
F1096       F  0.35009250  0.50423352  0.00019851    -0.19800
C1097       C  0.35279626  0.53145723  0.42671995    -0.21200
C1098       C  0.33538459  0.52021683  0.44652129    -0.09300
C1099       C  0.32352191  0.49709069  0.44637541     0.29600
C1100       C  0.32968185  0.48546998  0.42753658    -0.21200
C1101       C  0.34759359  0.49671488  0.40827620    -0.09300
C1102       C  0.35873227  0.51992130  0.40751847     0.29600
F1103       F  0.37620445  0.53165260  0.38942708    -0.19800
H1104       H  0.36220722  0.54921867  0.42674518     0.17900
H1105       H  0.32099255  0.46774292  0.42885089     0.18000
F1106       F  0.30712127  0.48578524  0.46613991    -0.19800
C1107       C  0.53766967  0.29196147  0.48471966    -0.21200
C1108       C  0.54472394  0.30331972  0.01011978    -0.09300
C1109       C  0.55111354  0.29565576  0.03454278     0.29600
C1110       C  0.55000664  0.27543227  0.03324639    -0.21200
C1111       C  0.54300931  0.26236524  0.00748647    -0.09300
C1112       C  0.53698765  0.27197278  0.48295239     0.29600
F1113       F  0.53337758  0.26248564  0.45591871    -0.19800
H1114       H  0.53464793  0.29804351  0.46460291     0.17900
H1115       H  0.55446990  0.26981109  0.05272113     0.18000
F1116       F  0.55829202  0.30759357  0.05987940    -0.19800
C1117       C  0.48460269  0.33934875  0.08646304    -0.21200
C1118       C  0.49429652  0.35948745  0.10167983    -0.09300
C1119       C  0.51712547  0.37402540  0.09917755     0.29600
C1120       C  0.52973341  0.36889697  0.08107358    -0.21200
C1121       C  0.52008841  0.34899074  0.06565639    -0.09300
C1122       C  0.49745264  0.33395470  0.06892639     0.29600
F1123       F  0.48758482  0.31464105  0.05384284    -0.19800
H1124       H  0.46712387  0.32797598  0.08783310     0.17900
H1125       H  0.54702302  0.38073056  0.07854874     0.18000
F1126       F  0.52721478  0.39388308  0.11292026    -0.19800
C1127       C  0.50141866  0.35511207  0.42579747    -0.21200
C1128       C  0.48835560  0.36226358  0.43911368    -0.09300
C1129       C  0.48900789  0.36463618  0.47011338     0.29600
C1130       C  0.50274906  0.36036219  0.48714045    -0.21200
C1131       C  0.51604475  0.35359380  0.47367591    -0.09300
C1132       C  0.51514275  0.35085652  0.44282004     0.29600
F1133       F  0.52822489  0.34495440  0.42898847    -0.19800
H1134       H  0.50160633  0.35353055  0.40196093     0.17900
H1135       H  0.50151707  0.35742796  0.01015785     0.18000
F1136       F  0.47678626  0.37157702  0.48400343    -0.19800
C1137       C  0.71756231  0.46478923  0.02592131    -0.21200
C1138       C  0.71140188  0.47195934  0.00071981    -0.09300
C1139       C  0.72271532  0.47502519  0.47641802     0.29600
C1140       C  0.74254621  0.47533376  0.47658456    -0.21200
C1141       C  0.75122653  0.47100348  0.00215048    -0.09300
C1142       C  0.73696768  0.46425410  0.02668170     0.29600
F1143       F  0.74171431  0.45692733  0.05153764    -0.19800
H1144       H  0.70720761  0.45955614  0.04539211     0.17900
H1145       H  0.75031273  0.47685268  0.45545769     0.18000
F1146       F  0.71459122  0.47594818  0.44978096    -0.19800
C1147       C  0.58902379  0.40436586  0.99733026    -0.21200
C1148       C  0.58800409  0.38664252  0.01259457    -0.09300
C1149       C  0.60731473  0.38991081  0.02581749     0.29600
C1150       C  0.62596521  0.41061011  0.52708610    -0.21200
C1151       C  0.62833501  0.42757160  0.00722732    -0.09300
C1152       C  0.60892786  0.42460456  0.99459659     0.29600
F1153       F  0.60927231  0.44086163  0.97857257    -0.19800
H1154       H  0.57452722  0.40235971  0.98671777     0.17900
H1155       H  0.64016134  0.41233424  0.53824682     0.18000
F1156       F  0.60529285  0.37451182  0.54634553    -0.19800
C1157       C  0.67308640  0.51808085  0.05170710    -0.21200
C1158       C  0.66403830  0.49538361  0.05495020    -0.09300
C1159       C  0.64793164  0.48407718  0.07654817     0.29600
C1160       C  0.64055888  0.49527864  0.09402965    -0.21200
C1161       C  0.64869218  0.51784432  0.08972468    -0.09300
C1162       C  0.66527860  0.52919989  0.06853523     0.29600
F1163       F  0.67326942  0.55078538  0.06308153    -0.19800
H1164       H  0.68526085  0.52693819  0.03473559     0.17900
H1165       H  0.62774849  0.48603565  0.11008750     0.18000
F1166       F  0.63879234  0.46207363  0.07996439    -0.19800
C1167       C  0.66055228  0.51376833  0.41469690    -0.21200
C1168       C  0.65201163  0.52583182  0.42744128    -0.09300
C1169       C  0.64786823  0.52389324  0.45812939     0.29600
C1170       C  0.65231447  0.51034106  0.47538219    -0.21200
C1171       C  0.66089633  0.49833058  0.46260869    -0.09300
C1172       C  0.66489415  0.50013700  0.43195429     0.29600
F1173       F  0.67216043  0.48803585  0.41845348    -0.19800
H1174       H  0.66334189  0.51440390  0.39098412     0.17900
H1175       H  0.64909036  0.50936893  0.49894567     0.18000
F1176       F  0.63883568  0.53448104  0.47140531    -0.19800
C1177       C  0.69001400  0.47256025  0.00175888     0.86600
C1178       C  0.68592463  0.48477400  0.97664149    -0.53700
C1179       C  0.66663703  0.48441335  0.97900230     0.09500
C1180       C  0.65300090  0.47178773  0.00626948     0.20400
C1181       C  0.68795197  0.48441817  0.53236731    -0.54400
C1182       C  0.66870372  0.48401002  0.53476780     0.09600
C1183       C  0.66888740  0.44955059  0.50539867    -0.53900
C1184       C  0.64951393  0.44913015  0.50784904     0.10200
H1185       H  0.69794735  0.49507187  0.96030756     0.14700
H1186       H  0.63750867  0.47174906  0.00856379     0.00400
H1187       H  0.70112678  0.49297200  0.54823148     0.15000
H1188       H  0.67037732  0.43462934  0.00050892     0.14800
C1189       C  0.54266762  0.32551039  0.51371972     0.86600
C1190       C  0.53176464  0.32712293  0.54232465    -0.53700
C1191       C  0.53181512  0.34627199  0.54519079     0.09500
C1192       C  0.54296740  0.36230330  0.51924794     0.20400
C1193       C  0.53103984  0.32791856  0.98773763    -0.54400
C1194       C  0.53089935  0.34697421  0.99036500     0.09600
C1195       C  0.56564813  0.34621017  0.51354310    -0.53900
C1196       C  0.56607424  0.36560564  0.51638962     0.10200
H1197       H  0.52376520  0.31384894  0.55820995     0.14700
H1198       H  0.54297934  0.37784960  0.52162838     0.00400
H1199       H  0.52100022  0.31562250  0.97139268     0.15000
H1200       H  0.58031959  0.34545580  0.51047887     0.14800
C1201       C  0.31096200  0.54367146  0.50134847     0.86600
C1202       C  0.31156997  0.53176235  0.97436736    -0.53700
C1203       C  0.33077420  0.53218191  0.97076451     0.09500
C1204       C  0.34769531  0.54419524  0.49537173     0.20400
C1205       C  0.31537948  0.53156771  0.52615737    -0.54400
C1206       C  0.33444103  0.53161861  0.52289189     0.09600
C1207       C  0.33150140  0.56681686  0.50075013    -0.53900
C1208       C  0.35083765  0.56730703  0.49782866     0.10200
H1209       H  0.29807143  0.52333370  0.95894017     0.14700
H1210       H  0.36328648  0.54446117  0.49270688     0.00400
H1211       H  0.30376668  0.52208415  0.54339963     0.15000
H1212       H  0.33070783  0.58155141  0.50347974     0.14800
C1213       C  0.45700282  0.69110633  0.50308975     0.86600
C1214       C  0.46846515  0.68922953  0.53084962    -0.53700
C1215       C  0.46925456  0.67049833  0.53194053     0.09500
C1216       C  0.45813504  0.65492629  0.50544217     0.20400
C1217       C  0.46854760  0.68771018  0.97817733    -0.54400
C1218       C  0.46957211  0.66900490  0.97968278     0.09600
C1219       C  0.43435552  0.66981263  0.50379519    -0.53900
C1220       C  0.43462446  0.65076207  0.50402268     0.10200
H1221       H  0.47607248  0.70191959  0.54765437     0.14700
H1222       H  0.45865557  0.63964625  0.50636244     0.00400
H1223       H  0.47685676  0.70005268  0.96114451     0.15000
H1224       H  0.41909894  0.66952327  0.50543771     0.14800
In1225     In  0.46106973  0.38689246  0.64730578     1.36900
C1226       C  0.48069546  0.36720889  0.62267901     0.77600
O1227       O  0.48353671  0.41854166  0.62447090    -0.60800
O1228       O  0.48756348  0.41661993  0.67057634    -0.51700
C1229       C  0.42955960  0.38947375  0.61901684     0.70300
O1230       O  0.42528003  0.37569701  0.63934734    -0.46600
C1231       C  0.44940866  0.37808761  0.70404974     0.75000
O1232       O  0.46059675  0.36004508  0.61844316    -0.58400
O1233       O  0.45394759  0.39564083  0.69122619    -0.48500
O1234       O  0.48941803  0.38238615  0.64141784    -0.54900
C1235       C  0.49421381  0.42810710  0.64746560     0.85200
O1236       O  0.44932322  0.39983947  0.61137819    -0.56800
O1237       O  0.44958086  0.36391532  0.68719217    -0.60000
In1238     In  0.61635584  0.54453819  0.63656167     1.36900
C1239       C  0.61316715  0.57641451  0.61076656     0.77600
O1240       O  0.58323585  0.52123303  0.61720243    -0.60800
O1241       O  0.58924987  0.51663376  0.66162792    -0.51700
C1242       C  0.63863858  0.52867999  0.60900273     0.70300
O1243       O  0.64255983  0.54788249  0.60441384    -0.46600
C1244       C  0.62743814  0.55803388  0.69236653     0.75000
O1245       O  0.62797400  0.58044475  0.62931648    -0.58400
O1246       O  0.61031082  0.55505572  0.68006251    -0.48500
O1247       O  0.60178487  0.55649857  0.60337850    -0.54900
C1248       C  0.57586911  0.51005181  0.64048636     0.85200
O1249       O  0.62426153  0.51840548  0.62834065    -0.56800
O1250       O  0.63981139  0.55500383  0.67552175    -0.60000
In1251     In  0.46344852  0.39101357  0.88780490     1.36900
C1252       C  0.43012896  0.39550011  0.90506629     0.77600
O1253       O  0.48711782  0.42457249  0.90638958    -0.60800
O1254       O  0.49556184  0.41494241  0.86671678    -0.51700
C1255       C  0.47702960  0.36872226  0.92030211     0.70300
O1256       O  0.46543560  0.37571916  0.93088525    -0.46600
C1257       C  0.45210659  0.38151639  0.83114002     0.75000
O1258       O  0.42695809  0.37823162  0.89235600    -0.58400
O1259       O  0.46138619  0.40062208  0.84193588    -0.48500
O1260       O  0.44983406  0.40893531  0.91132341    -0.54900
C1261       C  0.50092024  0.42971535  0.88593433     0.85200
O1262       O  0.47941554  0.37093472  0.89275188    -0.56800
O1263       O  0.44807313  0.36658529  0.84970790    -0.60000
In1264     In  0.62106327  0.55055876  0.87617785     1.36900
C1265       C  0.64429994  0.53717540  0.90643174     0.77600
O1266       O  0.59042164  0.52586567  0.90009116    -0.60800
O1267       O  0.59408917  0.51943105  0.85553055    -0.51700
C1268       C  0.61793344  0.58430350  0.89586031     0.70300
O1269       O  0.63402319  0.58735859  0.88035247    -0.46600
C1270       C  0.62903223  0.56118569  0.81921373     0.75000
O1271       O  0.64030054  0.55130828  0.91637134    -0.58400
O1272       O  0.61119484  0.55591001  0.83184677    -0.48500
O1273       O  0.63907736  0.53230945  0.87973730    -0.54900
C1274       C  0.58247473  0.51289803  0.87849843     0.85200
O1275       O  0.60512873  0.56460617  0.90309338    -0.56800
O1276       O  0.64343722  0.56179627  0.83615380    -0.60000
In1277     In  0.37735252  0.46827011  0.86592689     1.36900
C1278       C  0.35515942  0.48523907  0.89053777     0.77600
O1279       O  0.40832653  0.49237807  0.88896155    -0.60800
O1280       O  0.40629407  0.49538873  0.84265212    -0.51700
C1281       C  0.38117399  0.43687965  0.89230937     0.70300
O1282       O  0.36848527  0.43286279  0.87073009    -0.46600
C1283       C  0.36873709  0.45655374  0.80949282     0.75000
O1284       O  0.34932945  0.46529340  0.89414539    -0.58400
O1285       O  0.38582246  0.46005567  0.82252517    -0.48500
O1286       O  0.37059293  0.49522800  0.87248624    -0.54900
C1287       C  0.41751955  0.50299148  0.86580199     0.85200
O1288       O  0.38933548  0.45601969  0.90254012    -0.56800
O1289       O  0.35518334  0.45811307  0.82587070    -0.60000
In1290     In  0.53461100  0.62542192  0.86972150     1.36900
C1291       C  0.56885436  0.62422308  0.89044387     0.77600
O1292       O  0.50954400  0.59423851  0.89165370    -0.60800
O1293       O  0.50592243  0.59785835  0.84605441    -0.51700
C1294       C  0.52018806  0.64697501  0.90184408     0.70300
O1295       O  0.53400972  0.64251942  0.91131896    -0.46600
C1296       C  0.54629107  0.63555627  0.81363729     0.75000
O1297       O  0.57116936  0.64113833  0.87785731    -0.58400
O1298       O  0.54340144  0.61838913  0.82592949    -0.48500
O1299       O  0.54927803  0.60892393  0.89362287    -0.54900
C1300       C  0.49852856  0.58587081  0.86855932     0.85200
O1301       O  0.51553427  0.64248747  0.87493057    -0.56800
O1302       O  0.54389413  0.64838573  0.83056682    -0.60000
In1303     In  0.38266888  0.46869740  0.62702192     1.36900
C1304       C  0.38620799  0.43555216  0.60663321     0.77600
O1305       O  0.41487833  0.49320833  0.60627084    -0.60800
O1306       O  0.40904051  0.49812985  0.65067150    -0.51700
C1307       C  0.35996531  0.48250476  0.59670899     0.70300
O1308       O  0.36244384  0.46713620  0.58767493    -0.46600
C1309       C  0.37176236  0.45631861  0.68293131     0.75000
O1310       O  0.36910141  0.43232844  0.61967239    -0.58400
O1311       O  0.38924858  0.45972736  0.67115488    -0.48500
O1312       O  0.40002623  0.45544036  0.60146166    -0.54900
C1313       C  0.42217645  0.50482430  0.62925762     0.85200
O1314       O  0.36754511  0.48945921  0.62209029    -0.56800
O1315       O  0.35903252  0.45823498  0.66552050    -0.60000
In1316     In  0.53856138  0.62689784  0.63091979     1.36900
C1317       C  0.52046830  0.64730115  0.60431338     0.77600
O1318       O  0.51769117  0.59359395  0.61077639    -0.60800
O1319       O  0.51033082  0.59884622  0.65432969    -0.51700
C1320       C  0.57114403  0.62448670  0.60654035     0.70300
O1321       O  0.57445113  0.63827439  0.62658509    -0.46600
C1322       C  0.54989544  0.63735553  0.68707779     0.75000
O1323       O  0.54037295  0.65342343  0.60031013    -0.58400
O1324       O  0.54803204  0.62057800  0.67471025    -0.48500
O1325       O  0.51088575  0.63199509  0.62262522    -0.54900
C1326       C  0.50517681  0.58578763  0.63282000     0.85200
O1327       O  0.55199383  0.61464734  0.59626043    -0.56800
O1328       O  0.54727803  0.64985939  0.67002676    -0.60000
C1329       C  0.31349448  0.77618746  0.50115117     0.86600
C1330       C  0.31736638  0.79328869  0.52546990    -0.53700
C1331       C  0.33675003  0.81305780  0.52292486     0.09500
C1332       C  0.35089675  0.81348951  0.49667469     0.20400
C1333       C  0.31617990  0.78888669  0.97328329    -0.54400
C1334       C  0.33559817  0.80847801  0.97084491     0.09600
C1335       C  0.33380779  0.77409323  0.50363138    -0.53900
C1336       C  0.35342633  0.79336293  0.50115105     0.10200
H1337       H  0.30563105  0.79038523  0.54274371     0.14700
H1338       H  0.36681533  0.82912804  0.49457992     0.00400
H1339       H  0.30321095  0.78338443  0.95702954     0.15000
H1340       H  0.33273221  0.75849404  0.50701326     0.14800
C1341       C  0.45656143  0.77453207  0.50247580     0.86600
C1342       C  0.46778442  0.78731192  0.97739715    -0.53700
C1343       C  0.46877380  0.80686096  0.97543215     0.09500
C1344       C  0.45791415  0.81190546  0.49884306     0.20400
C1345       C  0.46851308  0.79047074  0.52857261    -0.54400
C1346       C  0.46955381  0.81022395  0.52638783     0.09600
C1347       C  0.43383401  0.77232513  0.50253604    -0.53900
C1348       C  0.43443726  0.79183568  0.50049839     0.10200
H1349       H  0.47578225  0.78224709  0.96153521     0.14700
H1350       H  0.45868916  0.82784855  0.49725380     0.00400
H1351       H  0.47612972  0.78682102  0.54654266     0.15000
H1352       H  0.41850683  0.75680770  0.50486018     0.14800
In1353     In  0.46498698  0.09655652  0.64445009     1.36900
C1354       C  0.43456915  0.05835118  0.62039343     0.77600
O1355       O  0.48946998  0.09049282  0.62243347    -0.60800
O1356       O  0.49563523  0.10250972  0.66640493    -0.51700
C1357       C  0.47756014  0.13454978  0.61672515     0.70300
O1358       O  0.46114056  0.11653172  0.60865734    -0.46600
C1359       C  0.45242662  0.09191280  0.70075160     0.75000
O1360       O  0.42965912  0.06891112  0.63815978    -0.58400
O1361       O  0.45872327  0.08030646  0.68819327    -0.48500
O1362       O  0.45443379  0.06846054  0.61300696    -0.54900
C1363       C  0.50195159  0.09626410  0.64451087     0.85200
O1364       O  0.48596216  0.13335192  0.64044533    -0.56800
O1365       O  0.45155842  0.10563916  0.68398737    -0.60000
In1366     In  0.46110467  0.08824573  0.88395622     1.36900
C1367       C  0.47892134  0.12669560  0.91212974     0.77600
O1368       O  0.48259775  0.07810204  0.90631307    -0.60800
O1369       O  0.48897196  0.08840340  0.86162204    -0.51700
C1370       C  0.42740188  0.05081011  0.90433178     0.70300
O1371       O  0.42496533  0.06240338  0.88549631    -0.46600
C1372       C  0.45113976  0.08881742  0.82745862     0.75000
O1373       O  0.45907743  0.11197461  0.91614943    -0.58400
O1374       O  0.45443451  0.07458435  0.83861065    -0.48500
O1375       O  0.48847887  0.12209715  0.89270248    -0.54900
C1376       C  0.49465088  0.08204567  0.88395623     0.85200
O1377       O  0.44620058  0.06007031  0.91564869    -0.56800
O1378       O  0.45225304  0.10289926  0.84570959    -0.60000
In1379     In  0.38102123  0.92241114  0.86868939     1.36900
C1380       C  0.38462950  0.95883359  0.89280040     0.77600
O1381       O  0.41026718  0.92694982  0.89324847    -0.60800
O1382       O  0.41051612  0.92511382  0.84653436    -0.51700
C1383       C  0.35912783  0.88293071  0.89495319     0.70300
O1384       O  0.35701582  0.89873200  0.90325307    -0.46600
C1385       C  0.37097903  0.92386313  0.81224096     0.75000
O1386       O  0.36895101  0.94627507  0.87598532    -0.58400
O1387       O  0.35725445  0.90950753  0.82986103    -0.48500
O1388       O  0.39699511  0.95170703  0.89892078    -0.54900
C1389       C  0.42022058  0.92657556  0.87043655     0.85200
O1390       O  0.37015963  0.88677969  0.87167830    -0.56800
O1391       O  0.38912793  0.93734095  0.82389981    -0.60000
In1392     In  0.38263267  0.92636153  0.62927869     1.36900
C1393       C  0.35974198  0.88913016  0.59745411     0.77600
O1394       O  0.41404880  0.93265278  0.60882689    -0.60800
O1395       O  0.40817054  0.92337204  0.65377755    -0.51700
C1396       C  0.38992853  0.96527918  0.61028297     0.70300
O1397       O  0.40177068  0.95763794  0.60333511    -0.46600
C1398       C  0.37130679  0.92683682  0.68552263     0.75000
O1399       O  0.36256560  0.90729615  0.58888297    -0.58400
O1400       O  0.38972879  0.94035644  0.67464330    -0.48500
O1401       O  0.36640250  0.88965923  0.62329739    -0.54900
C1402       C  0.42090016  0.92850329  0.63203909     0.85200
O1403       O  0.37276669  0.95188859  0.62425241    -0.56800
O1404       O  0.35774728  0.91313797  0.66705527    -0.60000
C1405       C  0.68205291  0.23795635  0.51725080     0.86600
C1406       C  0.67780183  0.22310747  0.54442817    -0.53700
C1407       C  0.65829089  0.20344208  0.54352362     0.09500
C1408       C  0.64444843  0.20087680  0.51596568     0.20400
C1409       C  0.67986386  0.22170245  0.99074295    -0.54400
C1410       C  0.66036204  0.20227738  0.99001229     0.09600
C1411       C  0.66217242  0.24069914  0.51567622    -0.53900
C1412       C  0.64241870  0.22145638  0.51525121     0.10200
H1413       H  0.69021734  0.22645562  0.56081984     0.14700
H1414       H  0.62846341  0.18515652  0.51515901     0.00400
H1415       H  0.69278562  0.22552755  0.97487350     0.15000
H1416       H  0.66367845  0.25669128  0.51526104     0.14800
C1417       C  0.53970565  0.24062542  0.50855316     0.86600
C1418       C  0.52839097  0.22367105  0.98240323    -0.53700
C1419       C  0.52786348  0.20427056  0.98410588     0.09500
C1420       C  0.53859230  0.20334722  0.51212764     0.20400
C1421       C  0.52780578  0.22693811  0.53625769    -0.54400
C1422       C  0.52701470  0.20738798  0.53795594     0.09600
C1423       C  0.56237546  0.24302212  0.50922631    -0.53900
C1424       C  0.56197669  0.22362498  0.51101341     0.10200
H1425       H  0.51939222  0.22624683  0.96532971     0.14700
H1426       H  0.53789999  0.18742567  0.51371372     0.00400
H1427       H  0.51951016  0.23164894  0.55210255     0.15000
H1428       H  0.57749366  0.25890428  0.50871370     0.14800
In1429     In  0.61502432  0.08860317  0.88658082     1.36900
C1430       C  0.63616630  0.12807593  0.91313561     0.77600
O1431       O  0.63845252  0.10209139  0.84739998    -0.60800
O1432       O  0.60709236  0.07350586  0.84190944    -0.51700
C1433       C  0.61077904  0.05169660  0.90822978     0.70300
O1434       O  0.62633902  0.06429054  0.89129147    -0.46600
C1435       C  0.57502478  0.08194004  0.88639888     0.75000
O1436       O  0.64107712  0.11366637  0.91819493    -0.58400
O1437       O  0.58672547  0.08659377  0.86353731    -0.48500
O1438       O  0.62216606  0.12281832  0.89313196    -0.54900
C1439       C  0.62487477  0.08744061  0.82991974     0.85200
O1440       O  0.59971353  0.05971261  0.91734362    -0.56800
O1441       O  0.58363402  0.08004645  0.90963477    -0.60000
In1442     In  0.61684945  0.09114005  0.64622560     1.36900
C1443       C  0.63947656  0.12783636  0.61436436     0.77600
O1444       O  0.58523587  0.08334897  0.62532725    -0.60800
O1445       O  0.59324912  0.09900122  0.66712168    -0.51700
C1446       C  0.61183469  0.05355286  0.62565339     0.70300
O1447       O  0.62921832  0.06772382  0.63855916    -0.46600
C1448       C  0.62505372  0.08817965  0.70292024     0.75000
O1449       O  0.63300007  0.10902870  0.60387485    -0.58400
O1450       O  0.60659843  0.07641242  0.69089911    -0.48500
O1451       O  0.63727457  0.12802506  0.64193522    -0.54900
C1452       C  0.57986579  0.09147371  0.64601633     0.85200
O1453       O  0.59813801  0.05938932  0.62187925    -0.56800
O1454       O  0.63999017  0.10140811  0.68549448    -0.60000
In1455     In  0.53533632  0.92223467  0.63551282     1.36900
C1456       C  0.56862602  0.96115949  0.61752123     0.77600
O1457       O  0.51373469  0.93234720  0.61383585    -0.60800
O1458       O  0.50473006  0.91781944  0.65619174    -0.51700
C1459       C  0.52003170  0.88524879  0.60373243     0.70300
O1460       O  0.53685648  0.90310618  0.59618392    -0.46600
C1461       C  0.54646707  0.92249505  0.69182195     0.75000
O1462       O  0.57155210  0.94873028  0.63424510    -0.58400
O1463       O  0.53962685  0.93436021  0.68177180    -0.48500
O1464       O  0.54948220  0.95246488  0.60754701    -0.54900
C1465       C  0.50020766  0.92604540  0.63478377     0.85200
O1466       O  0.51280392  0.88582538  0.62884324    -0.56800
O1467       O  0.54809108  0.91033777  0.67272350    -0.60000
In1468     In  0.53516780  0.92112948  0.87471117     1.36900
C1469       C  0.51894184  0.88191132  0.90079158     0.77600
O1470       O  0.50909756  0.92463016  0.89747129    -0.60800
O1471       O  0.50894869  0.92304629  0.85074324    -0.51700
C1472       C  0.56643700  0.95877587  0.89953373     0.70300
O1473       O  0.54678164  0.94855315  0.90777480    -0.46600
C1474       C  0.54739119  0.92261434  0.81836431     0.75000
O1475       O  0.53751903  0.89818947  0.90747404    -0.58400
O1476       O  0.54628079  0.90837002  0.83615417    -0.48500
O1477       O  0.50996133  0.88540662  0.87942621    -0.54900
C1478       C  0.49987203  0.92457665  0.87375350     0.85200
O1479       O  0.57083059  0.94839473  0.88082834    -0.56800
O1480       O  0.54303449  0.93606466  0.82987866    -0.60000
C1481       C  0.76633257  0.32292062  0.51372100     0.86600
C1482       C  0.78053523  0.32449256  0.98729969    -0.53700
C1483       C  0.80021805  0.34398701  0.98677596     0.09500
C1484       C  0.80316905  0.36068204  0.51064827     0.20400
C1485       C  0.78217060  0.32740883  0.53957501    -0.54400
C1486       C  0.80134544  0.34712348  0.53796764     0.09600
C1487       C  0.76356275  0.34297365  0.51255022    -0.53900
C1488       C  0.78273276  0.36271313  0.51082868     0.10200
H1489       H  0.77613377  0.31172047  0.97088970     0.14700
H1490       H  0.81883875  0.37671315  0.50965421     0.00400
H1491       H  0.77968272  0.31535069  0.55613134     0.15000
H1492       H  0.74769297  0.34161868  0.51292423     0.14800
C1493       C  0.77258328  0.47160884  0.50290226     0.86600
C1494       C  0.78835665  0.48379522  0.52905713    -0.53700
C1495       C  0.80649059  0.48186117  0.52945244     0.09500
C1496       C  0.80734677  0.46815973  0.50372353     0.20400
C1497       C  0.78860234  0.48118854  0.97722789    -0.54400
C1498       C  0.80688036  0.47974882  0.97882357     0.09600
C1499       C  0.76761893  0.44778051  0.50459314    -0.53900
C1500       C  0.78570687  0.44593222  0.50491174     0.10200
H1501       H  0.78575371  0.49353791  0.54523862     0.14700
H1502       H  0.82211851  0.46675049  0.50419056     0.00400
H1503       H  0.78675631  0.49038916  0.95962655     0.15000
H1504       H  0.75111171  0.43355570  0.50534215     0.14800
In1505     In  0.08542092  0.62150290  0.64410751     1.36900
C1506       C  0.05118020  0.62061476  0.61882272     0.77600
O1507       O  0.07737107  0.59097557  0.61912222    -0.60800
O1508       O  0.08285161  0.59198937  0.66539490    -0.51700
C1509       C  0.12458443  0.64252746  0.61772940     0.70300
O1510       O  0.11105556  0.64875686  0.61445232    -0.46600
C1511       C  0.08261742  0.62931429  0.70120109     0.75000
O1512       O  0.06408004  0.63605384  0.63580429    -0.58400
O1513       O  0.06793171  0.61280431  0.68748734    -0.48500
O1514       O  0.05716087  0.60723799  0.61276627    -0.54900
C1515       C  0.07883142  0.58133286  0.64155209     0.85200
O1516       O  0.11890602  0.62766174  0.63657396    -0.56800
O1517       O  0.09870994  0.64250236  0.68532065    -0.60000
In1518     In  0.08074696  0.62137808  0.88584004     1.36900
C1519       C  0.11927500  0.64411860  0.91340243     0.77600
O1520       O  0.07620195  0.59220520  0.91166476    -0.60800
O1521       O  0.07418483  0.59019713  0.86499483    -0.51700
C1522       C  0.04517529  0.62017023  0.90602627     0.70300
O1523       O  0.05824969  0.63501232  0.88854540    -0.46600
C1524       C  0.08076901  0.62947026  0.82843444     0.75000
O1525       O  0.10310297  0.64579956  0.92064934    -0.58400
O1526       O  0.06602170  0.61233387  0.84092814    -0.48500
O1527       O  0.11617979  0.63271868  0.89055196    -0.54900
C1528       C  0.07332785  0.58080276  0.88886079     0.85200
O1529       O  0.05183581  0.60806077  0.91546350    -0.56800
O1530       O  0.09552771  0.64317684  0.84568581    -0.60000
In1531     In  0.91993099  0.54220649  0.87169892     1.36900
C1532       C  0.95440227  0.57541249  0.89836322     0.77600
O1533       O  0.93501553  0.52259902  0.88516529    -0.60800
O1534       O  0.91723620  0.51433517  0.84502754    -0.51700
C1535       C  0.88249345  0.52430310  0.90238447     0.70300
O1536       O  0.89390346  0.54475331  0.89789592    -0.46600
C1537       C  0.92005127  0.55414368  0.81608023     0.75000
O1538       O  0.94404827  0.57838875  0.87824513    -0.58400
O1539       O  0.93657647  0.55594224  0.82879494    -0.48500
O1540       O  0.94545949  0.55583074  0.90709794    -0.54900
C1541       C  0.92788487  0.50998958  0.86301430     0.85200
O1542       O  0.89005653  0.51363360  0.89062629    -0.56800
O1543       O  0.90340011  0.54719313  0.83250925    -0.60000
In1544     In  0.92279040  0.54327519  0.63272813     1.36900
C1545       C  0.96009937  0.57719060  0.61091321     0.77600
O1546       O  0.90585677  0.54925481  0.67160277    -0.60800
O1547       O  0.93712804  0.55341511  0.67774692    -0.51700
C1548       C  0.88464182  0.52573167  0.60253384     0.70300
O1549       O  0.89854727  0.54614667  0.60239570    -0.46600
C1550       C  0.92943025  0.50986007  0.63733071     0.75000
O1551       O  0.94765799  0.57992355  0.62789728    -0.58400
O1552       O  0.92366639  0.51709656  0.65874330    -0.48500
O1553       O  0.95201785  0.55765433  0.60227296    -0.54900
C1554       C  0.92128087  0.55375075  0.68937397     0.85200
O1555       O  0.89017007  0.51502894  0.61848231    -0.56800
O1556       O  0.93224809  0.52007240  0.61340579    -0.60000
C1557       C  0.22994939  0.68942161  0.50890369     0.86600
C1558       C  0.21421723  0.68618762  0.98484068    -0.53700
C1559       C  0.19466665  0.66674351  0.98574597     0.09500
C1560       C  0.19269199  0.65178019  0.51052238     0.20400
C1561       C  0.21615488  0.68603671  0.53690687    -0.54400
C1562       C  0.19650763  0.66671437  0.53735190     0.09600
C1563       C  0.23224394  0.66888669  0.50841953    -0.53900
C1564       C  0.21281982  0.64899559  0.50951607     0.10200
H1565       H  0.21782567  0.69873504  0.96844532     0.14700
H1566       H  0.17664274  0.63612267  0.51121789     0.00400
H1567       H  0.22114857  0.69787435  0.55478864     0.15000
H1568       H  0.24796450  0.67004890  0.50753929     0.14800
C1569       C  0.22691778  0.54174088  0.50968334     0.86600
C1570       C  0.21104873  0.52832561  0.53508697    -0.53700
C1571       C  0.19145533  0.52746991  0.53432908     0.09500
C1572       C  0.18979989  0.54075188  0.50857230     0.20400
C1573       C  0.21340476  0.53112689  0.98250833    -0.54400
C1574       C  0.19422750  0.53078397  0.98094230     0.09600
C1575       C  0.22929476  0.56447885  0.51131808    -0.53900
C1576       C  0.21004378  0.56441778  0.51083266     0.10200
H1577       H  0.21373778  0.51818930  0.55021685     0.14700
H1578       H  0.17392938  0.54000342  0.50825993     0.00400
H1579       H  0.21817460  0.52345349  0.96573071     0.15000
H1580       H  0.24524602  0.57945913  0.51195547     0.14800
In1581     In  0.08095308  0.46879688  0.87798438     1.36900
C1582       C  0.04185176  0.43398817  0.89166804     0.77600
O1583       O  0.07727892  0.49273224  0.90549133    -0.60800
O1584       O  0.06764911  0.48872606  0.86036927    -0.51700
C1585       C  0.11977734  0.48540658  0.90452596     0.70300
O1586       O  0.10488940  0.46547178  0.90786030    -0.46600
C1587       C  0.09117720  0.46768959  0.82218910     0.75000
O1588       O  0.05239450  0.43482452  0.86885129    -0.58400
O1589       O  0.08689390  0.48151399  0.83248183    -0.48500
O1590       O  0.05264636  0.44957716  0.90950197    -0.54900
C1591       C  0.07035427  0.49896923  0.88431882     0.85200
O1592       O  0.11476634  0.49578046  0.88717684    -0.56800
O1593       O  0.09017984  0.45390896  0.84071229    -0.60000
In1594     In  0.08078371  0.46453706  0.64084024     1.36900
C1595       C  0.11595750  0.47422149  0.60813730     0.77600
O1596       O  0.08504650  0.49452662  0.61803881    -0.60800
O1597       O  0.06881922  0.48554788  0.65946583    -0.51700
C1598       C  0.04033127  0.43047387  0.63079239     0.70300
O1599       O  0.05345762  0.42913988  0.64798142    -0.46600
C1600       C  0.09131165  0.46473766  0.69669788     0.75000
O1601       O  0.09669611  0.46238181  0.59851825    -0.58400
O1602       O  0.09144329  0.48056011  0.68413518    -0.48500
O1603       O  0.11693360  0.47885029  0.63508718    -0.54900
C1604       C  0.07617619  0.49919896  0.63861213     0.85200
O1605       O  0.04864894  0.44827508  0.61683275    -0.56800
O1606       O  0.08611865  0.44831063  0.68019493    -0.60000
In1607     In  0.90930861  0.38405595  0.64959125     1.36900
C1608       C  0.94786529  0.38752991  0.63959939     0.77600
O1609       O  0.92225082  0.41522780  0.62395303    -0.60800
O1610       O  0.91949045  0.41655603  0.67050021    -0.51700
C1611       C  0.87418170  0.36852293  0.61499261     0.70300
O1612       O  0.88039070  0.38420870  0.63277958    -0.46600
C1613       C  0.89398153  0.36378064  0.70097418     0.75000
O1614       O  0.93438163  0.38374356  0.61908006    -0.58400
O1615       O  0.89546006  0.38164925  0.69421510    -0.48500
O1616       O  0.94094519  0.38808971  0.66500756    -0.54900
C1617       C  0.92394607  0.42669494  0.64622753     0.85200
O1618       O  0.88525765  0.35924730  0.61598712    -0.56800
O1619       O  0.89920109  0.35517111  0.68053665    -0.60000
In1620     In  0.91033552  0.38592496  0.87506386     1.36900
C1621       C  0.87608437  0.37014972  0.91214642     0.77600
O1622       O  0.92851099  0.42158141  0.88805290    -0.60800
O1623       O  0.91362427  0.41292353  0.84590081    -0.51700
C1624       C  0.94896007  0.39068463  0.88845910     0.70300
O1625       O  0.94160078  0.38820285  0.86258836    -0.46600
C1626       C  0.89515948  0.36408451  0.82444647     0.75000
O1627       O  0.88373435  0.35839956  0.90401769    -0.58400
O1628       O  0.88941183  0.37671027  0.83512055    -0.48500
O1629       O  0.88659547  0.38938110  0.90240508    -0.54900
C1630       C  0.92409465  0.42793245  0.86457890     0.85200
O1631       O  0.93574948  0.38914383  0.90833733    -0.56800
O1632       O  0.90743252  0.36094544  0.84112453    -0.60000
C1633       C  0.87444573  0.35926548  0.77847238    -0.21200
C1634       C  0.88961856  0.35596707  0.79364456    -0.09300
C1635       C  0.90216509  0.34935853  0.77749101     0.29600
C1636       C  0.90150101  0.34902696  0.74642831    -0.21200
C1637       C  0.88842193  0.35532986  0.73142898    -0.09300
C1638       C  0.87385724  0.35899609  0.74768507     0.29600
F1639       F  0.86049566  0.36440187  0.73375339    -0.19800
H1640       H  0.86430479  0.36396800  0.79033877     0.17900
H1641       H  0.91285867  0.34614882  0.73424081     0.18000
F1642       F  0.91671085  0.34556165  0.79136324    -0.19800
C1643       C  0.00585210  0.40205317  0.65507966    -0.21200
C1644       C  0.01659613  0.41398836  0.62953325    -0.09300
C1645       C  0.00394865  0.41332918  0.60530834     0.29600
C1646       C  0.98113533  0.40272699  0.60773546    -0.21200
C1647       C  0.97062912  0.39295739  0.63449170    -0.09300
C1648       C  0.98308159  0.39181551  0.65772863     0.29600
F1649       F  0.97344324  0.38203972  0.68370383    -0.19800
H1650       H  0.01520995  0.40228484  0.67402126     0.17900
H1651       H  0.97192469  0.40373114  0.58950282     0.18000
F1652       F  0.01374238  0.42416496  0.57995311    -0.19800
C1653       C  0.00653784  0.41974887  0.91924939    -0.21200
C1654       C  0.01806252  0.41789667  0.89520732    -0.09300
C1655       C  0.00603663  0.40359428  0.87182426     0.29600
C1656       C  0.98323707  0.39318221  0.87126200    -0.21200
C1657       C  0.97186707  0.39669525  0.89388028    -0.09300
C1658       C  0.98361983  0.40925398  0.91866298     0.29600
F1659       F  0.97328515  0.41321780  0.94086501    -0.19800
H1660       H  0.01534894  0.43068756  0.93751776     0.17900
H1661       H  0.97455897  0.38347640  0.85200910     0.18000
F1662       F  0.01630671  0.40116219  0.84812354    -0.19800
C1663       C  0.09039058  0.44781389  0.77613402    -0.21200
C1664       C  0.09595502  0.46753571  0.79059565    -0.09300
C1665       C  0.10352343  0.48676630  0.77392559     0.29600
C1666       C  0.10354391  0.48581681  0.74326050    -0.21200
C1667       C  0.09586344  0.46571443  0.72857043    -0.09300
C1668       C  0.09024944  0.44683374  0.74516983     0.29600
F1669       F  0.08315770  0.42721950  0.73166183    -0.19800
H1670       H  0.08469260  0.43288378  0.78868431     0.17900
H1671       H  0.10845210  0.50071864  0.73099890     0.18000
F1672       F  0.10988330  0.50634107  0.78718109    -0.19800
C1673       C  0.17501930  0.50917131  0.58314544    -0.21200
C1674       C  0.17230582  0.51183070  0.55295926    -0.09300
C1675       C  0.15117783  0.49916541  0.54067169     0.29600
C1676       C  0.13316092  0.48553252  0.55848045    -0.21200
C1677       C  0.13563549  0.48418161  0.58896115    -0.09300
C1678       C  0.15689035  0.49554552  0.60104866     0.29600
F1679       F  0.16008828  0.49405006  0.63031223    -0.19800
H1680       H  0.19109861  0.51827297  0.59312728     0.17900
H1681       H  0.11704079  0.47687480  0.54854869     0.18000
F1682       F  0.14767333  0.49986415  0.51142113    -0.19800
C1683       C  0.17215906  0.53066629  0.93887042    -0.21200
C1684       C  0.17778170  0.51887471  0.95764029    -0.09300
C1685       C  0.16599717  0.49576089  0.95616440     0.29600
C1686       C  0.14747167  0.48468481  0.93798416    -0.21200
C1687       C  0.14092546  0.49656522  0.92054846    -0.09300
C1688       C  0.15408237  0.51973505  0.92025300     0.29600
F1689       F  0.14888136  0.53203173  0.90320957    -0.19800
H1690       H  0.18146423  0.54843133  0.93921400     0.17900
H1691       H  0.13784348  0.46688592  0.93831050     0.18000
F1692       F  0.17142201  0.48395019  0.97386976    -0.19800
C1693       C  0.19402569  0.60810564  0.49749494    -0.21200
C1694       C  0.21149283  0.62702402  0.51077683    -0.09300
C1695       C  0.22757110  0.62462868  0.52539825     0.29600
C1696       C  0.22654546  0.60436347  0.52575634    -0.21200
C1697       C  0.20955217  0.58554637  0.51161166    -0.09300
C1698       C  0.19299970  0.58772153  0.49783065     0.29600
F1699       F  0.17843365  0.57188802  0.97904227    -0.19800
H1700       H  0.18270904  0.61025303  0.98321297     0.17900
H1701       H  0.23919152  0.60347856  0.53759892     0.18000
F1702       F  0.24414511  0.64171022  0.54027271    -0.19800
C1703       C  0.93315637  0.47998225  0.61435972    -0.21200
C1704       C  0.93154452  0.49035131  0.63989732    -0.09300
C1705       C  0.93016034  0.48085882  0.66766133     0.29600
C1706       C  0.92888418  0.46066002  0.66958385    -0.21200
C1707       C  0.92909135  0.44959117  0.64395810    -0.09300
C1708       C  0.93192947  0.45975596  0.61628398     0.29600
F1709       F  0.93250917  0.44976230  0.59095664    -0.19800
H1710       H  0.93441134  0.48704713  0.59277160     0.17900
H1711       H  0.92689272  0.45330190  0.69112378     0.18000
F1712       F  0.92936681  0.49072248  0.69298728    -0.19800
C1713       C  0.90109717  0.55031585  0.73679994    -0.21200
C1714       C  0.92092468  0.55792930  0.72150205    -0.09300
C1715       C  0.94052004  0.56734498  0.73779510     0.29600
C1716       C  0.94010700  0.56754517  0.76860651    -0.21200
C1717       C  0.92020514  0.55827075  0.78401185    -0.09300
C1718       C  0.90069861  0.55044229  0.76789060     0.29600
F1719       F  0.88116177  0.54152386  0.78208320    -0.19800
H1720       H  0.88579800  0.54304850  0.72479383     0.17900
H1721       H  0.95541205  0.57397138  0.78044572     0.18000
F1722       F  0.96011964  0.57544752  0.72400489    -0.19800
C1723       C  0.91808146  0.45490648  0.83816660    -0.21200
C1724       C  0.92906520  0.45059480  0.86032195    -0.09300
C1725       C  0.94244505  0.46736059  0.88039708     0.29600
C1726       C  0.94313690  0.48733687  0.87993197    -0.21200
C1727       C  0.93055542  0.49088980  0.85946178    -0.09300
C1728       C  0.91878308  0.47487279  0.83766314     0.29600
F1729       F  0.90675625  0.47781949  0.81706484    -0.19800
H1730       H  0.90782439  0.44231918  0.82230262     0.17900
H1731       H  0.95270102  0.49961639  0.89652659     0.18000
F1732       F  0.95402803  0.46410401  0.90135345    -0.19800
C1733       C  0.07263503  0.52974753  0.91347321    -0.21200
C1734       C  0.06738786  0.51787753  0.88682307    -0.09300
C1735       C  0.06204111  0.52588588  0.86187649     0.29600
C1736       C  0.06319938  0.54600476  0.86327260    -0.21200
C1737       C  0.06969115  0.55849327  0.88940169    -0.09300
C1738       C  0.07386821  0.54995976  0.91482457     0.29600
F1739       F  0.08033209  0.56160522  0.94044916    -0.19800
H1740       H  0.07684210  0.52390302  0.93296892     0.17900
H1741       H  0.05968859  0.55215950  0.84349583     0.18000
F1742       F  0.05680302  0.51493954  0.83568269    -0.19800
C1743       C  0.15839045  0.66345507  0.97862474    -0.21200
C1744       C  0.17599413  0.66239472  0.96668380    -0.09300
C1745       C  0.17567762  0.65733123  0.93665235     0.29600
C1746       C  0.15761369  0.65255181  0.91912885    -0.21200
C1747       C  0.13962516  0.65297367  0.93109440    -0.09300
C1748       C  0.14039376  0.65897312  0.96100745     0.29600
F1749       F  0.12337030  0.65945383  0.97359541    -0.19800
H1750       H  0.16629563  0.68007876  0.49072304     0.17900
H1751       H  0.15742587  0.64784133  0.89619006     0.18000
F1752       F  0.19244751  0.65613873  0.92460668    -0.19800
C1753       C  0.98681661  0.58725155  0.93030565    -0.21200
C1754       C  0.97666777  0.59241625  0.90793410    -0.09300
C1755       C  0.98958567  0.61116888  0.89044786     0.29600
C1756       C  0.01247386  0.62229554  0.89233889    -0.21200
C1757       C  0.02261657  0.61499480  0.91190322    -0.09300
C1758       C  0.00957877  0.59847550  0.93241594     0.29600
F1759       F  0.01878036  0.59152580  0.95245958    -0.19800
H1760       H  0.97723721  0.57313869  0.94442274     0.17900
H1761       H  0.02214615  0.63511388  0.87647714     0.18000
F1762       F  0.98032177  0.61716870  0.86920835    -0.19800
C1763       C  0.16944428  0.64153987  0.57445541    -0.21200
C1764       C  0.17939503  0.66169854  0.55977603    -0.09300
C1765       C  0.17206903  0.67634540  0.56540277     0.29600
C1766       C  0.15446483  0.67040968  0.58473939    -0.21200
C1767       C  0.14446120  0.65013774  0.59943337    -0.09300
C1768       C  0.15247942  0.63595334  0.59454680     0.29600
F1769       F  0.14327286  0.61613890  0.60815968    -0.19800
H1770       H  0.17481396  0.63008060  0.57029391     0.17900
H1771       H  0.14853273  0.68150650  0.58800176     0.18000
F1772       F  0.18127910  0.69594153  0.55122128    -0.19800
C1773       C  0.01844972  0.60157625  0.58633651    -0.21200
C1774       C  0.02944536  0.61643110  0.60954681    -0.09300
C1775       C  0.01753816  0.62259131  0.62787408     0.29600
C1776       C  0.99463541  0.61163972  0.62556474    -0.21200
C1777       C  0.98335699  0.59435111  0.60516202    -0.09300
C1778       C  0.99563383  0.59061057  0.58409114     0.29600
F1779       F  0.98551663  0.57473612  0.56319245    -0.19800
H1780       H  0.02731084  0.59685778  0.57156994     0.17900
H1781       H  0.98564884  0.61500187  0.64193804     0.18000
F1782       F  0.02755944  0.63696172  0.65050446    -0.19800
C1783       C  0.10045293  0.64629218  0.74955891    -0.21200
C1784       C  0.08141949  0.63206136  0.73351213    -0.09300
C1785       C  0.06170517  0.61895769  0.74902253     0.29600
C1786       C  0.06150470  0.61899825  0.77992273    -0.21200
C1787       C  0.08080528  0.63229394  0.79601880    -0.09300
C1788       C  0.10018578  0.64649171  0.78055152     0.29600
F1789       F  0.11915231  0.65955879  0.79529923    -0.19800
H1790       H  0.11582424  0.65655965  0.73813680     0.17900
H1791       H  0.04627117  0.60813821  0.79131327     0.18000
F1792       F  0.04269852  0.60568951  0.73440028    -0.19800
C1793       C  0.07243464  0.54734724  0.66605414    -0.21200
C1794       C  0.07668895  0.55965050  0.64010994    -0.09300
C1795       C  0.08008802  0.55160776  0.61344079     0.29600
C1796       C  0.07946973  0.53167015  0.61297550    -0.21200
C1797       C  0.07531878  0.51941841  0.63896704    -0.09300
C1798       C  0.07167263  0.52736955  0.66557344     0.29600
F1799       F  0.06826371  0.51635293  0.69137904    -0.19800
H1800       H  0.06995205  0.55334271  0.68686464     0.17900
H1801       H  0.08254343  0.52595614  0.59234123     0.18000
F1802       F  0.08494574  0.56341337  0.58810522    -0.19800
C1803       C  0.83180417  0.48117251  0.56655870    -0.21200
C1804       C  0.82504363  0.49341867  0.55055764    -0.09300
C1805       C  0.83771241  0.51651429  0.55210450     0.29600
C1806       C  0.85690454  0.52705422  0.56930634    -0.21200
C1807       C  0.86378093  0.51476061  0.58528006    -0.09300
C1808       C  0.85078633  0.49158878  0.58385756     0.29600
F1809       F  0.85670415  0.47882802  0.59843237    -0.19800
H1810       H  0.82252201  0.46341670  0.56521067     0.17900
H1811       H  0.86660027  0.54482710  0.56968803     0.18000
F1812       F  0.83222087  0.52886684  0.53570033    -0.19800
C1813       C  0.85367120  0.49104270  0.92810551    -0.21200
C1814       C  0.86233983  0.51320312  0.92054703    -0.09300
C1815       C  0.85202176  0.52414750  0.93135344     0.29600
C1816       C  0.83353961  0.51301905  0.94962691    -0.21200
C1817       C  0.82538397  0.49102578  0.95778462    -0.09300
C1818       C  0.83559872  0.48014668  0.94675796     0.29600
F1819       F  0.82808319  0.45890342  0.95390430    -0.19800
H1820       H  0.86122764  0.48215598  0.92010335     0.17900
H1821       H  0.82601028  0.52179042  0.95817493     0.18000
F1822       F  0.85987706  0.54554121  0.92464087    -0.19800
C1823       C  0.78404018  0.39346508  0.48179124    -0.21200
C1824       C  0.78356482  0.38406683  0.50926350    -0.09300
C1825       C  0.78335997  0.39490503  0.53520885     0.29600
C1826       C  0.78398733  0.41495611  0.53367096    -0.21200
C1827       C  0.78457992  0.42442679  0.50623892    -0.09300
C1828       C  0.78438613  0.41339061  0.48023845     0.29600
F1829       F  0.78479822  0.42076182  0.95466432    -0.19800
H1830       H  0.78430299  0.38417034  0.96313136     0.17900
H1831       H  0.78399684  0.42313268  0.55395434     0.18000
F1832       F  0.78251034  0.38602985  0.56203399    -0.19800
C1833       C  0.82744721  0.33769805  0.56040914    -0.21200
C1834       C  0.82029024  0.35264903  0.55708087    -0.09300
C1835       C  0.83159203  0.37298864  0.57148568     0.29600
C1836       C  0.84896287  0.37777740  0.59031923    -0.21200
C1837       C  0.85586846  0.36266291  0.59440956    -0.09300
C1838       C  0.84533365  0.34277499  0.57859853     0.29600
F1839       F  0.85212886  0.32822197  0.58086574    -0.19800
H1840       H  0.81931881  0.32220898  0.54863198     0.17900
H1841       H  0.85711722  0.39345595  0.60160949     0.18000
F1842       F  0.82552554  0.38803044  0.56790539    -0.19800
C1843       C  0.84304997  0.34064771  0.93973855    -0.21200
C1844       C  0.85628619  0.36265484  0.93082783    -0.09300
C1845       C  0.85000975  0.37776195  0.93907165     0.29600
C1846       C  0.83136207  0.37114783  0.95615037    -0.21200
C1847       C  0.81833026  0.34938080  0.96559070    -0.09300
C1848       C  0.82417283  0.33398509  0.95694402     0.29600
F1849       F  0.81400647  0.31457499  0.46921375    -0.19800
H1850       H  0.84735577  0.32865661  0.93352333     0.17900
H1851       H  0.82716276  0.38324251  0.96215268     0.18000
F1852       F  0.86194659  0.39916784  0.93084588    -0.19800
C1853       C  0.55863288  0.94251547  0.73949851    -0.21200
C1854       C  0.55143824  0.92295006  0.72369043    -0.09300
C1855       C  0.54643892  0.90382380  0.73933245     0.29600
C1856       C  0.54666316  0.90398736  0.77047465    -0.21200
C1857       C  0.55205893  0.92324771  0.78623888    -0.09300
C1858       C  0.55914351  0.94276744  0.77034566     0.29600
F1859       F  0.56567815  0.96200358  0.78465084    -0.19800
H1860       H  0.56302035  0.95755331  0.72791058     0.17900
H1861       H  0.54123794  0.88876708  0.78219232     0.18000
F1862       F  0.53956877  0.88463799  0.72472742    -0.19800
C1863       C  0.59152088  0.01987399  0.59471514    -0.21200
C1864       C  0.60649092  0.03109827  0.61764568    -0.09300
C1865       C  0.61249372  0.01928063  0.63621176     0.29600
C1866       C  0.60174915  0.99629678  0.63392955    -0.21200
C1867       C  0.58497989  0.98484279  0.61305468    -0.09300
C1868       C  0.58100509  0.99701060  0.59219112     0.29600
F1869       F  0.56560663  0.98670303  0.57085875    -0.19800
H1870       H  0.58682760  0.02866795  0.57992622     0.17900
H1871       H  0.60511481  0.98736705  0.65030568     0.18000
F1872       F  0.62677683  0.02955564  0.65874423    -0.19800
C1873       C  0.61244403  0.01830406  0.89557679    -0.21200
C1874       C  0.60391750  0.02835834  0.91344351    -0.09300
C1875       C  0.58566074  0.01490277  0.93141648     0.29600
C1876       C  0.57481389  0.99199831  0.92891575    -0.21200
C1877       C  0.58187916  0.98196265  0.90854935    -0.09300
C1878       C  0.60158808  0.99532348  0.89313488     0.29600
F1879       F  0.60931731  0.98639160  0.87365730    -0.19800
H1880       H  0.62647820  0.02820148  0.88155958     0.17900
H1881       H  0.55987016  0.98218032  0.94136460     0.18000
F1882       F  0.57710902  0.02379570  0.94960106    -0.19800
C1883       C  0.61307679  0.06803713  0.78172823    -0.21200
C1884       C  0.62831397  0.08672673  0.79767914    -0.09300
C1885       C  0.64463543  0.10500892  0.78201885     0.29600
C1886       C  0.64456837  0.10497532  0.75089950    -0.21200
C1887       C  0.62811478  0.08685070  0.73511491    -0.09300
C1888       C  0.61281808  0.06809600  0.75091987     0.29600
F1889       F  0.59688234  0.05005999  0.73665724    -0.19800
H1890       H  0.60051466  0.05360296  0.79315255     0.17900
H1891       H  0.65653086  0.11962600  0.73922217     0.18000
F1892       F  0.65964658  0.12339239  0.79663234    -0.19800
C1893       C  0.73220178  0.29069336  0.98914629    -0.21200
C1894       C  0.74430214  0.30111548  0.51542353    -0.09300
C1895       C  0.73451416  0.29080310  0.54257553     0.29600
C1896       C  0.71481376  0.27048362  0.54307764    -0.21200
C1897       C  0.70370100  0.26013267  0.51678596    -0.09300
C1898       C  0.71221060  0.27070304  0.98957086     0.29600
F1899       F  0.70131959  0.26282117  0.96365844    -0.19800
H1900       H  0.73853676  0.29867604  0.96807036     0.17900
H1901       H  0.70795848  0.26334674  0.56435872     0.18000
F1902       F  0.74311997  0.30066401  0.56890258    -0.19800
C1903       C  0.58399796  0.20783270  0.53050899    -0.21200
C1904       C  0.58227255  0.22241912  0.51139880    -0.09300
C1905       C  0.60022951  0.23359468  0.99174386     0.29600
C1906       C  0.61926876  0.23265394  0.99282115    -0.21200
C1907       C  0.62129687  0.22101272  0.51354806    -0.09300
C1908       C  0.60331915  0.20715377  0.53170368     0.29600
F1909       F  0.60475163  0.19370559  0.55155675    -0.19800
H1910       H  0.57057229  0.19736012  0.54515649     0.17900
H1911       H  0.63255003  0.24281999  0.97779094     0.18000
F1912       F  0.59891785  0.24689935  0.97151495    -0.19800
C1913       C  0.64586986  0.16366607  0.54879479    -0.21200
C1914       C  0.65402591  0.18434774  0.56212318    -0.09300
C1915       C  0.65893601  0.18658913  0.59253254     0.29600
C1916       C  0.65515060  0.16834443  0.60915130    -0.21200
C1917       C  0.64672021  0.14760543  0.59582208    -0.09300
C1918       C  0.64233916  0.14553180  0.56526272     0.29600
F1919       F  0.63382353  0.12581154  0.55140815    -0.19800
H1920       H  0.64231219  0.16143978  0.52526565     0.17900
H1921       H  0.65836842  0.17035551  0.63278631     0.18000
F1922       F  0.66670330  0.20619938  0.60639280    -0.19800
C1923       C  0.66905735  0.17575295  0.96629641    -0.21200
C1924       C  0.65550032  0.18462584  0.96840987    -0.18900
C1925       C  0.63672435  0.17588648  0.95079689     0.29600
C1926       C  0.63140590  0.15833372  0.93167216    -0.21200
C1927       C  0.64428926  0.14862966  0.93047662    -0.09300
C1928       C  0.66339457  0.15770617  0.94773408     0.29600
F1929       F  0.67639304  0.14901742  0.94693143    -0.19800
H1930       H  0.68361694  0.18231662  0.97987462     0.17900
H1931       H  0.61655750  0.15167584  0.91868354     0.18000
F1932       F  0.62344082  0.18424420  0.95230031    -0.19800
C1933       C  0.45540157  0.93537463  0.60838984    -0.21200
C1934       C  0.44185889  0.92920179  0.63344986    -0.09300
C1935       C  0.44824520  0.92308748  0.65932004     0.29600
C1936       C  0.46739420  0.92238205  0.65960199    -0.21200
C1937       C  0.48062272  0.92794650  0.63430238    -0.09300
C1938       C  0.47466769  0.93485039  0.60875099     0.29600
F1939       F  0.48714337  0.94067592  0.58391137    -0.19800
H1940       H  0.45093308  0.94033557  0.58831488     0.17900
H1941       H  0.47176495  0.91727499  0.67961505     0.18000
F1942       F  0.43586642  0.91741122  0.68423761    -0.19800
C1943       C  0.35236683  0.90720565  0.73256036    -0.21200
C1944       C  0.36713797  0.92675091  0.71771345    -0.09300
C1945       C  0.38049237  0.94576702  0.73453938     0.29600
C1946       C  0.38048524  0.94479163  0.76532848    -0.21200
C1947       C  0.36710571  0.92494114  0.78023704    -0.09300
C1948       C  0.35230761  0.90625925  0.76366864     0.29600
F1949       F  0.33904895  0.88676696  0.77727579    -0.19800
H1950       H  0.34193061  0.89233855  0.72010638     0.17900
H1951       H  0.39173122  0.95951495  0.77753820     0.18000
F1952       F  0.39439760  0.96519925  0.72118753    -0.19800
C1953       C  0.46952400  0.92575310  0.89935387    -0.21200
C1954       C  0.47993984  0.92586643  0.87292774    -0.09300
C1955       C  0.47080594  0.92664999  0.84579018     0.29600
C1956       C  0.45161412  0.92728688  0.84521629    -0.21200
C1957       C  0.44111661  0.92706813  0.87160563    -0.09300
C1958       C  0.45022931  0.92624400  0.89877928     0.29600
F1959       F  0.44027669  0.92537325  0.92478652    -0.19800
H1960       H  0.47613257  0.92494535  0.92051372     0.17900
H1961       H  0.44483975  0.92771002  0.82404862     0.18000
F1962       F  0.48026470  0.92660833  0.81973079    -0.19800
C1963       C  0.51940980  0.07192109  0.90888030    -0.21200
C1964       C  0.51427363  0.08023632  0.88406663    -0.09300
C1965       C  0.52877102  0.08804901  0.85992032     0.29600
C1966       C  0.54798439  0.08763328  0.86068350    -0.21200
C1967       C  0.55350978  0.07998372  0.88570421    -0.09300
C1968       C  0.53900380  0.07194148  0.90987647     0.29600
F1969       F  0.54386651  0.06447709  0.93451923    -0.19800
H1970       H  0.50849313  0.06587510  0.92779990     0.17900
H1971       H  0.55900040  0.09414955  0.84193406     0.18000
F1972       F  0.52495579  0.09702371  0.83598399    -0.19800
C1973       C  0.51365948  0.15660365  0.93324397    -0.21200
C1974       C  0.49099794  0.14724440  0.92938368    -0.09300
C1975       C  0.48069527  0.15753763  0.94228681     0.29600
C1976       C  0.49305299  0.17702217  0.95851970    -0.21200
C1977       C  0.51554431  0.18577903  0.96328398    -0.09300
C1978       C  0.52576782  0.17546844  0.95038287     0.29600
F1979       F  0.54748171  0.18363364  0.95440059    -0.19800
H1980       H  0.52195928  0.14890471  0.92363291     0.17900
H1981       H  0.48487709  0.18465389  0.96869213     0.18000
F1982       F  0.45882308  0.14880580  0.93926815    -0.19800
C1983       C  0.39327707  0.01595693  0.88971314    -0.21200
C1984       C  0.41107098  0.02717781  0.90920847    -0.09300
C1985       C  0.41602646  0.01474943  0.92825753     0.29600
C1986       C  0.40561810  0.99196903  0.92469957    -0.21200
C1987       C  0.38983585  0.98104195  0.90251034    -0.09300
C1988       C  0.38261789  0.99303504  0.88644365     0.29600
F1989       F  0.36691925  0.98307888  0.86542723    -0.19800
H1990       H  0.38892742  0.02506240  0.87499810     0.17900
H1991       H  0.41114468  0.98308477  0.93789448     0.18000
F1992       F  0.43243693  0.02475229  0.94835238    -0.19800
C1993       C  0.51778417  0.19227632  0.58949207    -0.21200
C1994       C  0.51277279  0.18995593  0.55926571    -0.09300
C1995       C  0.49416528  0.17059420  0.54919949     0.29600
C1996       C  0.48175305  0.15321372  0.56857569    -0.21200
C1997       C  0.48763948  0.15475687  0.59843188    -0.09300
C1998       C  0.50531321  0.17484269  0.60902842     0.29600
F1999       F  0.51092628  0.17743776  0.63804512    -0.19800
H2000       H  0.53176905  0.20730297  0.59776472     0.17900
H2001       H  0.46811578  0.13812184  0.55983707     0.18000
F2002       F  0.48801736  0.16834576  0.52051531    -0.19800
C2003       C  0.42632403  0.02529343  0.59058810    -0.21200
C2004       C  0.41930179  0.03516818  0.61129081    -0.09300
C2005       C  0.39968865  0.02169757  0.62680881     0.29600
C2006       C  0.38873824  0.99875200  0.62390080    -0.21200
C2007       C  0.39720065  0.98880848  0.60573105    -0.09300
C2008       C  0.41547815  0.00238682  0.58781813     0.29600
F2009       F  0.42386837  0.99358563  0.56918190    -0.19800
H2010       H  0.44120177  0.03524280  0.57801549     0.17900
H2011       H  0.37471736  0.98875032  0.63791465     0.18000
F2012       F  0.39225089  0.03046051  0.64699682    -0.19800
C2013       C  0.45074782  0.10820394  0.74931382    -0.21200
C2014       C  0.44778947  0.09004608  0.73285731    -0.09300
C2015       C  0.44310210  0.07083652  0.74790721     0.29600
C2016       C  0.44274921  0.07029953  0.77868685    -0.21200
C2017       C  0.44734243  0.08891289  0.79530528    -0.09300
C2018       C  0.45064447  0.10773680  0.78038841     0.29600
F2019       F  0.45527339  0.12611760  0.79563269    -0.19800
H2020       H  0.45451409  0.12322085  0.73817799     0.17900
H2021       H  0.43986582  0.05548400  0.78956568     0.18000
F2022       F  0.43978439  0.05278939  0.73292328    -0.19800
C2023       C  0.52551167  0.08365769  0.62259391    -0.21200
C2024       C  0.52203391  0.09535416  0.64480028    -0.09300
C2025       C  0.53759895  0.10561215  0.66740994     0.29600
C2026       C  0.55634073  0.10420129  0.66762529    -0.21200
C2027       C  0.55979766  0.09243506  0.64550537    -0.09300
C2028       C  0.54415953  0.08206051  0.62296318     0.29600
F2029       F  0.54668218  0.07015780  0.60149700    -0.19800
H2030       H  0.51361615  0.07545435  0.60513011     0.17900
H2031       H  0.56820562  0.11240821  0.68510486     0.18000
F2032       F  0.53486313  0.11717397  0.68916786    -0.19800
C2033       C  0.49496305  0.84468311  0.59602143    -0.21200
C2034       C  0.50844626  0.86579621  0.58406571    -0.09300
C2035       C  0.50837954  0.86851688  0.55332867     0.29600
C2036       C  0.49554726  0.85044297  0.53496563    -0.21200
C2037       C  0.48258170  0.82919795  0.54672794    -0.09300
C2038       C  0.48217517  0.82652728  0.57756538     0.29600
F2039       F  0.46859652  0.80662379  0.58998024    -0.19800
H2040       H  0.49405749  0.84231560  0.61967484     0.17900
H2041       H  0.49574789  0.85317483  0.51159827     0.18000
F2042       F  0.51973010  0.88883939  0.54109171    -0.19800
C2043       C  0.50438087  0.83935078  0.96091845    -0.21200
C2044       C  0.48262207  0.82385093  0.95370560    -0.09300
C2045       C  0.47376119  0.82605285  0.92732764     0.29600
C2046       C  0.48616455  0.84445584  0.90936367    -0.21200
C2047       C  0.50758569  0.86091853  0.91749951    -0.09300
C2048       C  0.51676042  0.85787467  0.94320145     0.29600
F2049       F  0.53725160  0.87323870  0.95203945    -0.19800
H2050       H  0.51187842  0.83747793  0.47801128     0.17900
H2051       H  0.47865809  0.84624356  0.88964759     0.18000
F2052       F  0.45293536  0.81079178  0.91950080    -0.19800
C2053       C  0.26942822  0.71462093  0.99274405    -0.21200
C2054       C  0.25144989  0.71201521  0.50706013    -0.09300
C2055       C  0.25297847  0.73154361  0.51762298     0.29600
C2056       C  0.27278084  0.75187952  0.51602643    -0.21200
C2057       C  0.29156496  0.75386463  0.50260832    -0.09300
C2058       C  0.28892952  0.73510510  0.99004128     0.29600
F2059       F  0.30506247  0.73617559  0.97288866    -0.19800
H2060       H  0.26839707  0.70073530  0.98133771     0.17900
H2061       H  0.27296638  0.76619310  0.52447409     0.18000
F2062       F  0.23517964  0.73138449  0.52851278    -0.19800
C2063       C  0.39229818  0.80829201  0.48379973    -0.21200
C2064       C  0.37486422  0.79423135  0.50254911    -0.09300
C2065       C  0.37777922  0.78032710  0.52167260     0.29600
C2066       C  0.39710078  0.77977836  0.52092775    -0.21200
C2067       C  0.41426374  0.79331362  0.50154051    -0.09300
C2068       C  0.41181411  0.80792688  0.48334565     0.29600
F2069       F  0.42808145  0.82154622  0.96588439    -0.19800
H2070       H  0.39091743  0.81969836  0.97024579     0.17900
H2071       H  0.39871481  0.76890900  0.53580383     0.18000
F2072       F  0.36215930  0.76750257  0.54168587    -0.19800
C2073       C  0.35546091  0.83170487  0.92688071    -0.21200
C2074       C  0.33940680  0.82554676  0.94875935    -0.09300
C2075       C  0.32886901  0.83755250  0.95175965     0.29600
C2076       C  0.33484808  0.85589479  0.93379911    -0.21200
C2077       C  0.35105698  0.86223559  0.91197391    -0.09300
C2078       C  0.36104179  0.84965758  0.90836339     0.29600
F2079       F  0.37714038  0.85540159  0.88803568    -0.19800
H2080       H  0.36396267  0.82296979  0.92461221     0.17900
H2081       H  0.32715669  0.86533622  0.93732686     0.18000
F2082       F  0.31371707  0.83235311  0.97333332    -0.19800
C2083       C  0.33630283  0.82996353  0.57208366    -0.21200
C2084       C  0.34234926  0.83267246  0.54200826    -0.09300
C2085       C  0.35296403  0.85415838  0.53026283     0.29600
C2086       C  0.35716664  0.87214889  0.54802938    -0.21200
C2087       C  0.35155526  0.86943073  0.57812037    -0.09300
C2088       C  0.34100673  0.84808706  0.58999480     0.29600
F2089       F  0.33523988  0.84472530  0.61897496    -0.19800
H2090       H  0.32827935  0.81381060  0.58197223     0.17900
H2091       H  0.36569733  0.88843392  0.53846050     0.18000
F2092       F  0.35923565  0.85803409  0.50154602    -0.19800
C2093       C  0.45808103  0.53134890  0.60625627    -0.21200
C2094       C  0.44421662  0.52460072  0.63101641    -0.09300
C2095       C  0.45152222  0.53708333  0.65720844     0.29600
C2096       C  0.47190777  0.55646890  0.65804300    -0.21200
C2097       C  0.48533948  0.56374684  0.63286562    -0.09300
C2098       C  0.47851382  0.55073087  0.60712220     0.29600
F2099       F  0.49114812  0.55710411  0.58241359    -0.19800
H2100       H  0.45291643  0.52187274  0.58596647     0.17900
H2101       H  0.47686511  0.56614635  0.67815839     0.18000
F2102       F  0.43878828  0.53094278  0.68181765    -0.19800
C2103       C  0.54678093  0.65370440  0.76594640    -0.21200
C2104       C  0.55104469  0.63932406  0.78165758    -0.09300
C2105       C  0.55776639  0.62669762  0.76599318     0.29600
C2106       C  0.55885764  0.62745033  0.73523522    -0.21200
C2107       C  0.55319787  0.64067716  0.71933515    -0.09300
C2108       C  0.54783016  0.65440203  0.73495168     0.29600
F2109       F  0.54211209  0.66728921  0.72030776    -0.19800
H2110       H  0.54148193  0.66350014  0.77752413     0.17900
H2111       H  0.56318514  0.61682547  0.72376483     0.18000
F2112       F  0.56243350  0.61287014  0.78028772    -0.19800
C2113       C  0.37977079  0.44666927  0.76259931    -0.21200
C2114       C  0.36598703  0.45227616  0.77730914    -0.09300
C2115       C  0.35179429  0.45617856  0.76054387     0.29600
C2116       C  0.35267629  0.45608635  0.72956438    -0.21200
C2117       C  0.36760449  0.45199249  0.71495142    -0.09300
C2118       C  0.38051562  0.44637506  0.73178803     0.29600
F2119       F  0.39450408  0.44139933  0.71854128    -0.19800
H2120       H  0.39065272  0.44328911  0.77499711     0.17900
H2121       H  0.34257132  0.46044460  0.71707100     0.18000
F2122       F  0.33821133  0.46159393  0.77396597    -0.19800
C2123       C  0.44977701  0.53194653  0.89307830    -0.21200
C2124       C  0.43919713  0.52317276  0.86603628    -0.09300
C2125       C  0.44887363  0.53459955  0.83970066     0.29600
C2126       C  0.46839394  0.55485787  0.84069666    -0.21200
C2127       C  0.47860113  0.56396485  0.86784439    -0.09300
C2128       C  0.46934081  0.55215882  0.89406195     0.29600
F2129       F  0.47878887  0.56036988  0.92072969    -0.19800
H2130       H  0.44261266  0.52341136  0.91365083     0.17900
H2131       H  0.47537079  0.56356528  0.82020156     0.18000
F2132       F  0.43930119  0.52649710  0.81305413    -0.19800
C2133       C  0.61784161  0.61825479  0.88175534    -0.21200
C2134       C  0.61233423  0.60127230  0.90215201    -0.09300
C2135       C  0.59652126  0.59703694  0.92390786     0.29600
C2136       C  0.58373624  0.60657746  0.92186235    -0.21200
C2137       C  0.58706339  0.62113092  0.89882572    -0.09300
C2138       C  0.60535983  0.62833044  0.88024044     0.29600
F2139       F  0.60940503  0.64290441  0.85827242    -0.19800
H2140       H  0.63013833  0.62202322  0.86496579     0.17900
H2141       H  0.57004997  0.60120117  0.93688176     0.18000
F2142       F  0.59181067  0.58185996  0.94527329    -0.19800
C2143       C  0.39475358  0.39208503  0.89033671    -0.21200
C2144       C  0.41304814  0.40122761  0.90914175    -0.09300
C2145       C  0.41730497  0.41923836  0.92707756     0.29600
C2146       C  0.40506317  0.42931825  0.92374892    -0.21200
C2147       C  0.38846706  0.42183515  0.90234393    -0.09300
C2148       C  0.38259174  0.40233994  0.88678918     0.29600
F2149       F  0.36651768  0.39437023  0.86612074    -0.19800
H2150       H  0.39111862  0.37824138  0.87627317     0.17900
H2151       H  0.40988527  0.44418704  0.93623771     0.18000
F2152       F  0.43452676  0.42833545  0.94602359    -0.19800
C2153       C  0.53577070  0.45561306  0.86023649    -0.21200
C2154       C  0.52159938  0.45118463  0.88427705    -0.09300
C2155       C  0.52749597  0.46735281  0.90627632     0.29600
C2156       C  0.54731712  0.48740923  0.90422030    -0.21200
C2157       C  0.56146509  0.49178315  0.88014860    -0.09300
C2158       C  0.55549567  0.47566781  0.85811727     0.29600
F2159       F  0.56890493  0.47902387  0.83483432    -0.19800
H2160       H  0.53164600  0.44346028  0.84302959     0.17900
H2161       H  0.55157106  0.49957807  0.92146261     0.18000
F2162       F  0.51422074  0.46384238  0.92978616    -0.19800
C2163       C  0.61663057  0.61309134  0.61628974    -0.21200
C2164       C  0.60757675  0.59286129  0.60134319    -0.09300
C2165       C  0.58994322  0.58673000  0.58193286     0.29600
C2166       C  0.57977570  0.59900220  0.58080809    -0.21200
C2167       C  0.58689315  0.61753641  0.59900767    -0.09300
C2168       C  0.60641801  0.62541638  0.61512348     0.29600
F2169       F  0.61442352  0.64378911  0.63204323    -0.19800
H2170       H  0.63041450  0.61839670  0.63100639     0.17900
H2171       H  0.56498132  0.59269901  0.56779923     0.18000
F2172       F  0.58109139  0.56771885  0.56622840    -0.19800
C2173       C  0.61723064  0.56795350  0.73989722    -0.21200
C2174       C  0.63140379  0.56328643  0.72434482    -0.09300
C2175       C  0.64719482  0.56129496  0.74029420     0.29600
C2176       C  0.64743220  0.56216781  0.77134822    -0.21200
C2177       C  0.63192465  0.56493390  0.78685785    -0.09300
C2178       C  0.61740830  0.56874693  0.77072094     0.29600
F2179       F  0.60272111  0.57238528  0.78468945    -0.19800
H2180       H  0.60518872  0.57000096  0.72821797     0.17900
H2181       H  0.65888380  0.55935863  0.78327306     0.18000
F2182       F  0.66145167  0.55714137  0.72613341    -0.19800
C2183       C  0.40919900  0.42295832  0.58275136    -0.21200
C2184       C  0.39149784  0.41826382  0.60129730    -0.09300
C2185       C  0.38300860  0.39983299  0.61994472     0.29600
C2186       C  0.39418316  0.38856414  0.62322873    -0.21200
C2187       C  0.41375496  0.39535727  0.60773887    -0.09300
C2188       C  0.42021111  0.41158018  0.58576551     0.29600
F2189       F  0.43844889  0.41802793  0.56924111    -0.19800
H2190       H  0.41579505  0.43681127  0.56776648     0.17900
H2191       H  0.38868166  0.37596274  0.63999952     0.18000
F2192       F  0.36560445  0.39441580  0.63773131    -0.19800
C2193       C  0.44461175  0.39230784  0.75181496    -0.21200
C2194       C  0.44573692  0.37570582  0.73652435    -0.09300
C2195       C  0.44591462  0.35900754  0.75297805     0.29600
C2196       C  0.44664273  0.36005047  0.78410293    -0.21200
C2197       C  0.44724150  0.37772742  0.79907829    -0.09300
C2198       C  0.44538937  0.39337727  0.78257697     0.29600
F2199       F  0.44500703  0.41022619  0.79615432    -0.19800
H2200       H  0.44406640  0.40518823  0.73987136     0.17900
H2201       H  0.44793008  0.34772517  0.79637097     0.18000
F2202       F  0.44659365  0.34242620  0.73911223    -0.19800
C2203       C  0.54649816  0.47961995  0.67006170    -0.21200
C2204       C  0.55369585  0.49051222  0.64283087    -0.09300
C2205       C  0.53997876  0.48189603  0.61798031     0.29600
C2206       C  0.52010338  0.46201243  0.62006580    -0.21200
C2207       C  0.51353272  0.45048202  0.64688332    -0.09300
C2208       C  0.52653812  0.45982778  0.67219844     0.29600
F2209       F  0.52044755  0.44952182  0.69876093    -0.19800
H2210       H  0.55659762  0.48612529  0.68961615     0.17900
H2211       H  0.51018929  0.45527584  0.60037285     0.18000
F2212       F  0.54605465  0.49215719  0.59140200    -0.19800
C2213       C  0.43875245  0.73335274  0.49143828    -0.21200
C2214       C  0.45651752  0.75285298  0.50305292    -0.09300
C2215       C  0.47548937  0.75244556  0.51058501     0.29600
C2216       C  0.47545535  0.73268554  0.51021329    -0.21200
C2217       C  0.45681312  0.71269481  0.50151597    -0.09300
C2218       C  0.43896961  0.71379036  0.49008639     0.29600
F2219       F  0.42189474  0.69641269  0.97565239    -0.19800
H2220       H  0.42426014  0.73294037  0.98288764     0.17900
H2221       H  0.49027631  0.73312037  0.51655460     0.18000
F2222       F  0.49440847  0.77125150  0.51749155    -0.19800
C2223       C  0.48413936  0.66839982  0.92900132    -0.21200
C2224       C  0.48341077  0.66445202  0.95955403    -0.09300
C2225       C  0.49608438  0.65612097  0.97076606     0.29600
C2226       C  0.50881102  0.65164514  0.95192918    -0.21200
C2227       C  0.50899602  0.65489417  0.92136919    -0.09300
C2228       C  0.49657800  0.66341951  0.90998972     0.29600
F2229       F  0.49621589  0.66667072  0.88050620    -0.19800
H2230       H  0.47457055  0.67475052  0.91972161     0.17900
H2231       H  0.51798457  0.64485493  0.96127490     0.18000
F2232       F  0.49728599  0.65294879  0.49916637    -0.19800
C2233       C  0.50575406  0.67876040  0.55047633    -0.21200
C2234       C  0.48284483  0.66726411  0.55358551    -0.09300
C2235       C  0.47296574  0.65119054  0.57546218     0.29600
C2236       C  0.48562741  0.64573733  0.59275864    -0.21200
C2237       C  0.50839151  0.65597630  0.58831437    -0.09300
C2238       C  0.51847110  0.67295101  0.56733737     0.29600
F2239       F  0.54033271  0.68326636  0.56225147    -0.19800
H2240       H  0.51361565  0.69130940  0.53364640     0.17900
H2241       H  0.47737485  0.63279725  0.60897747     0.18000
F2242       F  0.45101043  0.64052544  0.57979845    -0.19800
C2243       C  0.27883242  0.54061840  0.53173885    -0.21200
C2244       C  0.28971215  0.54415695  0.50436960    -0.09300
C2245       C  0.28104657  0.54964404  0.98175040     0.29600
C2246       C  0.26134336  0.54936460  0.98391634    -0.21200
C2247       C  0.24925231  0.54326707  0.50890005    -0.09300
C2248       C  0.25917763  0.54051010  0.53414849     0.29600
F2249       F  0.25087491  0.53906268  0.56160785    -0.19800
H2250       H  0.28576459  0.53872440  0.55179466     0.17900
H2251       H  0.25550431  0.55360681  0.96449039     0.18000
F2252       F  0.29203606  0.55570893  0.95566016    -0.19800
C2253       C  0.39039613  0.58973422  0.51409917    -0.21200
C2254       C  0.37272783  0.58824164  0.49824878    -0.09300
C2255       C  0.37521265  0.60647492  0.98457046     0.29600
C2256       C  0.39535899  0.62626155  0.98594449    -0.21200
C2257       C  0.41375352  0.62869698  0.50161602    -0.09300
C2258       C  0.41063321  0.60972073  0.51600292     0.29600
F2259       F  0.42665677  0.61057349  0.53299151    -0.19800
H2260       H  0.38830720  0.57556204  0.52592700     0.17900
H2261       H  0.39705683  0.64021307  0.97397441     0.18000
F2262       F  0.35882776  0.60577794  0.96855128    -0.19800
C2263       C  0.33714282  0.51775032  0.57269905    -0.21200
C2264       C  0.34003262  0.51820195  0.54190102    -0.09300
C2265       C  0.34765970  0.50523485  0.52940582     0.29600
C2266       C  0.35278026  0.49261629  0.54738555    -0.21200
C2267       C  0.35083974  0.49292589  0.57819717    -0.09300
C2268       C  0.34265565  0.50538714  0.59077099     0.29600
F2269       F  0.34008451  0.50571570  0.62047999    -0.19800
H2270       H  0.33108365  0.52739057  0.58284261     0.17900
H2271       H  0.35913755  0.48324463  0.53719656     0.18000
F2272       F  0.35007508  0.50450279  0.49979417    -0.19800
C2273       C  0.35112198  0.53135058  0.92636776    -0.21200
C2274       C  0.33442400  0.51993005  0.94709518    -0.09300
C2275       C  0.32298778  0.49682452  0.94717896     0.29600
C2276       C  0.32899732  0.48540209  0.92774675    -0.21200
C2277       C  0.34627868  0.49683929  0.90760278    -0.09300
C2278       C  0.35685305  0.51999712  0.90652365     0.29600
F2279       F  0.37363670  0.53188049  0.88747346    -0.19800
H2280       H  0.36014580  0.54911105  0.92613484     0.17900
H2281       H  0.32074136  0.46770857  0.92929288     0.18000
F2282       F  0.30716892  0.48539365  0.96763440    -0.19800
C2283       C  0.54027668  0.29154022  0.98339031    -0.21200
C2284       C  0.54308371  0.30415070  0.51121772    -0.09300
C2285       C  0.54990880  0.29655831  0.53524206     0.29600
C2286       C  0.54887882  0.27635572  0.53368762    -0.21200
C2287       C  0.54139139  0.26310385  0.50808757    -0.09300
C2288       C  0.53970053  0.27160375  0.98185291     0.29600
F2289       F  0.53735843  0.26251556  0.95472295    -0.19800
H2290       H  0.53792550  0.29794789  0.96307273     0.17900
H2291       H  0.55381550  0.27089145  0.55286545     0.18000
F2292       F  0.55743772  0.30857067  0.56047686    -0.19800
C2293       C  0.48410415  0.33983293  0.59104465    -0.21200
C2294       C  0.49386958  0.36019726  0.60567790    -0.09300
C2295       C  0.51655839  0.37499301  0.60209655     0.29600
C2296       C  0.52886584  0.36997419  0.58317827    -0.21200
C2297       C  0.51908660  0.34989448  0.56811721    -0.09300
C2298       C  0.49667126  0.33453719  0.57276054     0.29600
F2299       F  0.48665959  0.31495292  0.55833392    -0.19800
H2300       H  0.46673893  0.32821330  0.59337888     0.17900
H2301       H  0.54601522  0.38199428  0.57981287     0.18000
F2302       F  0.52673513  0.39495890  0.61555543    -0.19800
C2303       C  0.50258053  0.35469894  0.92471573    -0.21200
C2304       C  0.48860306  0.36052041  0.93853993    -0.09300
C2305       C  0.48817507  0.36108855  0.96967986     0.29600
C2306       C  0.50198091  0.35668738  0.98634288    -0.21200
C2307       C  0.51629972  0.35145585  0.97237166    -0.09300
C2308       C  0.51626020  0.35017547  0.94140101     0.29600
F2309       F  0.53021505  0.34558182  0.92725309    -0.19800
H2310       H  0.50350446  0.35438188  0.90078526     0.17900
H2311       H  0.50289780  0.36223455  0.51084640     0.18000
F2312       F  0.47500298  0.36660690  0.98409385    -0.19800
C2313       C  0.71893423  0.46765021  0.52872714    -0.21200
C2314       C  0.71098425  0.47226530  0.50293460    -0.09300
C2315       C  0.72481348  0.47700560  0.97531584     0.29600
C2316       C  0.74429532  0.47668985  0.97624966    -0.21200
C2317       C  0.75136468  0.47243326  0.50287277    -0.09300
C2318       C  0.73864505  0.46771220  0.52879223     0.29600
F2319       F  0.74510705  0.46284825  0.55434689    -0.19800
H2320       H  0.70978031  0.46393889  0.54920537     0.17900
H2321       H  0.75326017  0.48007753  0.95574597     0.18000
F2322       F  0.71880453  0.48084355  0.94871291    -0.19800
C2323       C  0.58842274  0.40536595  0.50013858    -0.21200
C2324       C  0.58699934  0.38757008  0.51569860    -0.09300
C2325       C  0.60601154  0.39066638  0.52964455     0.29600
C2326       C  0.62707303  0.40999031  0.02306446    -0.21200
C2327       C  0.62767189  0.42820636  0.51076887    -0.09300
C2328       C  0.60848623  0.42546438  0.49763860     0.29600
F2329       F  0.60920943  0.44177333  0.48127615    -0.19800
H2330       H  0.57413502  0.40349729  0.48905530     0.17900
H2331       H  0.64145763  0.41184215  0.03381481     0.18000
F2332       F  0.60710029  0.37383759  0.04211597    -0.19800
C2333       C  0.67335494  0.51891617  0.55430773    -0.21200
C2334       C  0.66431555  0.49620497  0.55739513    -0.09300
C2335       C  0.64831414  0.48474351  0.57897352     0.29600
C2336       C  0.64089824  0.49574785  0.59659853    -0.21200
C2337       C  0.64898788  0.51830345  0.59257897    -0.09300
C2338       C  0.66564825  0.52992779  0.57155641     0.29600
F2339       F  0.67381573  0.55163056  0.56675019    -0.19800
H2340       H  0.68547216  0.52785497  0.53729363     0.17900
H2341       H  0.62807000  0.48633892  0.61256267     0.18000
F2342       F  0.63924199  0.46273270  0.58213934    -0.19800
C2343       C  0.65868664  0.51179508  0.91183514    -0.21200
C2344       C  0.65229174  0.52555431  0.92502238    -0.09300
C2345       C  0.65070030  0.52560917  0.95609034     0.29600
C2346       C  0.65502477  0.51195489  0.97326374    -0.21200
C2347       C  0.66144926  0.49826511  0.96011377    -0.09300
C2348       C  0.66336959  0.49840048  0.92912547     0.29600
F2349       F  0.66884504  0.48487539  0.91552724    -0.19800
H2350       H  0.65959956  0.51102689  0.88789128     0.17900
H2351       H  0.65332037  0.51212861  0.99711346     0.18000
F2352       F  0.64401886  0.53811100  0.96987483    -0.19800
loop_ 
_geom_bond_atom_site_label_1 
_geom_bond_atom_site_label_2 
_geom_bond_distance 
_geom_bond_site_symmetry_2 
_ccdc_geom_bond_type 
C1            C2   1.549       .  S
C1         C1183   1.542       .  S
C1         C1181   1.546       .  S
C1         C2314   1.549       .  S
C2            H9   1.082       .  S
C2            C3   1.371       .  D
C3            C4   1.539       .  S
C3         C1171   1.494       .  S
C4         C1184   1.542       .  S
C4         C1182   1.533       .  S
C4           H10   1.110       .  S
C5         C1177   1.548       .  S
C5           H11   1.085       .  S
C5            C6   1.367       .  D
C6         C1180   1.534       .  S
C6         C1158   1.480       .  S
C7         C1177   1.540       .  S
C7         H1188   1.086       .  S
C7            C8   1.372       .  D
C8         C1180   1.544       .  S
C8         C1151   1.503       .  S
H12        C1183   1.086       .  S
C13          C14   1.543       .  S
C13          C19   1.534       .  S
C13        C1193   1.547   1_554  S
C13        C1108   1.536       .  S
C14          H21   1.086       .  S
C14          C15   1.366       .  D
C15          C16   1.540       .  S
C15        C1121   1.483       .  S
C16          C20   1.548       .  S
C16        C1194   1.537   1_554  S
C16          H22   1.111       .  S
C17        C1189   1.547       .  S
C17          H23   1.083       .  S
C17          C18   1.366       .  D
C18        C1192   1.538       .  S
C18        C1131   1.487       .  S
C19          H24   1.085       .  S
C19          C20   1.370       .  D
C20        C1148   1.503       .  S
C25          C31   1.536       .  S
C25          C29   1.548       .  S
C25        C1202   1.547   1_554  S
C25        C1068   1.542       .  S
C26        C1201   1.547       .  S
C26          H33   1.085       .  S
C26          C27   1.368       .  D
C27        C1204   1.539       .  S
C27        C1098   1.485       .  S
C28          C32   1.544       .  S
C28          C30   1.541   1_556  S
C28        C1203   1.538       .  S
C28          H34   1.110       .  S
C29          H35   1.083       .  S
C29          C30   1.371       .  D
C30        C1088   1.492       .  S
C31          H36   1.086       .  S
C31          C32   1.369   1_554  D
C32        C1078   1.499       .  S
C37          C38   1.545       .  S
C37          C43   1.540       .  S
C37        C1217   1.544   1_554  S
C37        C1041   1.543       .  S
C38          H45   1.085       .  S
C38          C39   1.363       .  D
C39          C40   1.541       .  S
C39        C1058   1.481       .  S
C40          C44   1.548       .  S
C40        C1218   1.542   1_554  S
C40          H46   1.108       .  S
C41        C1213   1.545       .  S
C41          H47   1.086       .  S
C41          C42   1.373       .  D
C42        C1216   1.544       .  S
C42        C1048   1.499       .  S
C43          H48   1.082       .  S
C43          C44   1.367       .  D
C44        C1081   1.507       .  S
In49         O51   2.237       .  S
In49         O52   2.233       .  S
In49         O60   2.238       .  S
In49         O54   2.280       .  S
In49         O56   2.301       .  S
In49         O57   2.218       .  S
In49         O58   2.219       .  S
In49         O61   2.289       .  S
C50          O56   1.265       .  A
C50          O58   1.253       .  A
C50        C1118   1.486       .  S
O51          C59   1.261       .  A
O52          C59   1.259       .  A
C53          O60   1.256       .  A
C53          O54   1.264       .  A
C53        C1011   1.485       .  S
C55          O57   1.260       .  A
C55          O61   1.268       .  A
C55        C1018   1.489       .  S
C59        C1031   1.470       .  S
In62         O64   2.241       .  S
In62         O65   2.235       .  S
In62         O73   2.249       .  S
In62         O67   2.284       .  S
In62         O69   2.276       .  S
In62         O70   2.224       .  S
In62         O71   2.240       .  S
In62         O74   2.275       .  S
C63          O69   1.263       .  A
C63          O71   1.259       .  A
C63         C988   1.486       .  S
O64          C72   1.261       .  A
O65          C72   1.259       .  A
C66          O73   1.255       .  A
C66          O67   1.264       .  A
C66        C1161   1.490       .  S
C68          O70   1.259       .  A
C68          O74   1.266       .  A
C68         C998   1.485       .  S
C72        C1028   1.472       .  S
In75         O77   2.252       .  S
In75         O78   2.247       .  S
In75         O86   2.259       .  S
In75         O80   2.264       .  S
In75         O82   2.271       .  S
In75         O83   2.224       .  S
In75         O84   2.238       .  S
In75         O87   2.280       .  S
C76          O82   1.265       .  A
C76          O84   1.260       .  A
C76         C968   1.487       .  S
O77          C85   1.259       .  A
O78          C85   1.258       .  A
C79          O86   1.258       .  A
C79          O80   1.259       .  A
C79        C1128   1.486       .  S
C81          O83   1.260       .  A
C81          O87   1.267       .  A
C81        C1021   1.487       .  S
C85         C978   1.478       .  S
In88         O90   2.235       .  S
In88         O91   2.258       .  S
In88         O99   2.213       .  S
In88         O93   2.292       .  S
In88         O95   2.268       .  S
In88         O96   2.223       .  S
In88         O97   2.263       .  S
In88        O100   2.277       .  S
C89          O95   1.259       .  A
C89          O97   1.259       .  A
C89        C1168   1.490       .  S
O90          C98   1.258       .  A
O91          C98   1.260       .  A
C92          O99   1.258       .  A
C92          O93   1.266       .  A
C92         C958   1.484       .  S
C94          O96   1.260       .  A
C94         O100   1.267       .  A
C94        C1001   1.483       .  S
C98         C981   1.477       .  S
In101       O103   2.233       .  S
In101       O104   2.234       .  S
In101       O112   2.252       .  S
In101       O106   2.275       .  S
In101       O108   2.291       .  S
In101       O109   2.217       .  S
In101       O110   2.229       .  S
In101       O113   2.272       .  S
C102        O108   1.267       .  A
C102        O110   1.254       .  A
C102       C1101   1.489       .  S
O103        C111   1.260       .  A
O104        C111   1.258       .  A
C105        O112   1.258       .  A
C105        O106   1.261       .  A
C105        C971   1.489       .  S
C107        O109   1.260       .  A
C107        O113   1.267       .  A
C107        C938   1.481       .  S
C111        C948   1.469       .  S
In114       O116   2.237       .  S
In114       O117   2.249       .  S
In114       O125   2.268       .  S
In114       O119   2.252       .  S
In114       O121   2.279       .  S
In114       O122   2.208       .  S
In114       O123   2.224       .  S
In114       O126   2.258       .  S
C115        O121   1.264       .  A
C115        O123   1.259       .  A
C115        C961   1.480       .  S
O116        C124   1.257       .  A
O117        C124   1.256       .  A
C118        O125   1.259       .  A
C118        O119   1.260       .  A
C118       C1051   1.486       .  S
C120        O122   1.260       .  A
C120        O126   1.267       .  A
C120        C928   1.477       .  S
C124        C951   1.471       .  S
In127       O129   2.248       .  S
In127       O130   2.236       .  S
In127       O138   2.257       .  S
In127       O132   2.267       .  S
In127       O134   2.273       .  S
In127       O135   2.226       .  S
In127       O136   2.229       .  S
In127       O139   2.271       .  S
C128        O134   1.265       .  A
C128        O136   1.259       .  A
C128       C1008   1.482       .  S
O129        C137   1.258       .  A
O130        C137   1.257       .  A
C131        O138   1.256       .  A
C131        O132   1.261       .  A
C131       C1091   1.483       .  S
C133        O135   1.260       .  A
C133        O139   1.265       .  A
C133        C941   1.482       .  S
C137        C918   1.473       .  S
In140       O142   2.238       .  S
In140       O143   2.234       .  S
In140       O151   2.232       .  S
In140       O145   2.269       .  S
In140       O147   2.296       .  S
In140       O148   2.221       .  S
In140       O149   2.226       .  S
In140       O152   2.262       .  S
C141        O147   1.266       .  A
C141        O149   1.254       .  A
C141       C1061   1.487       .  S
O142        C150   1.260       .  A
O143        C150   1.259       .  A
C144        O151   1.259       .  A
C144        O145   1.263       .  A
C144        C991   1.485       .  S
C146        O148   1.259       .  A
C146        O152   1.265       .  A
C146        C931   1.478       .  S
C150        C921   1.471       .  S
C153        C154   1.552       .  S
C153        C159   1.537       .  S
C153       C1333   1.543   1_554  S
C153        C881   1.553       .  S
C154        H161   1.083       .  S
C154        C155   1.376       .  D
C155        C156   1.545   1_554  S
C155        C908   1.503       .  S
C156        C160   1.547   1_556  S
C156       C1334   1.539       .  S
C156        H162   1.109       .  S
C157       C1329   1.542       .  S
C157        H163   1.086       .  S
C157        C158   1.369       .  D
C158       C1332   1.540       .  S
C158        C898   1.488       .  S
C159        H164   1.084       .  S
C159        C160   1.366       .  D
C160        C888   1.501       .  S
C165        C171   1.547       .  S
C165        C169   1.551       .  S
C165       C1342   1.536   1_554  S
C165       C1038   1.539       .  S
C166       C1341   1.538       .  S
C166        H173   1.086       .  S
C166        C167   1.361       .  D
C167       C1344   1.534       .  S
C167        C868   1.475       .  S
C168        C172   1.541       .  S
C168        C170   1.540       .  S
C168       C1343   1.534   1_554  S
C168        H174   1.109   1_554  S
C169        H175   1.084       .  S
C169        C170   1.373       .  D
C170        C861   1.495       .  S
C171        H176   1.085       .  S
C171        C172   1.370       .  D
C172        C891   1.497       .  S
In177       O179   2.238       .  S
In177       O180   2.237       .  S
In177       O188   2.261       .  S
In177       O182   2.260       .  S
In177       O184   2.277       .  S
In177       O185   2.215       .  S
In177       O186   2.240       .  S
In177       O189   2.268       .  S
C178        O184   1.265       .  A
C178        O186   1.259       .  A
C178        C828   1.489       .  S
O179        C187   1.259       .  A
O180        C187   1.258       .  A
C181        O188   1.255       .  A
C181        O182   1.262       .  A
C181        C821   1.483       .  S
C183        O185   1.260       .  A
C183        O189   1.266       .  A
C183        C838   1.477       .  S
C187        C848   1.471       .  S
In190       O192   2.253       .  S
In190       O193   2.226       .  S
In190       O201   2.241       .  S
In190       O195   2.267       .  S
In190       O197   2.289       .  S
In190       O198   2.209       .  S
In190       O199   2.211       .  S
In190       O202   2.276       .  S
C191        O197   1.266       .  A
C191        O199   1.253       .  A
C191        C798   1.476       .  S
O192        C200   1.261       .  A
O193        C200   1.259       .  A
C194        O201   1.259       .  A
C194        O195   1.262       .  A
C194        C808   1.487       .  S
C196        O198   1.260       .  A
C196        O202   1.266       .  A
C196        C841   1.480       .  S
C200        C788   1.474       .  S
In203       O205   2.237       .  S
In203       O206   2.242       .  S
In203       O214   2.245       .  S
In203       O208   2.285       .  S
In203       O210   2.291       .  S
In203       O211   2.280       .  S
In203       O212   2.245       .  S
In203       O215   2.226       .  S
C204        O210   1.263       .  A
C204        O212   1.257       .  A
C204        C811   1.488       .  S
O205        C213   1.259       .  A
O206        C213   1.261       .  A
C207        O214   1.256       .  A
C207        O208   1.265       .  A
C207        C901   1.491       .  S
C209        O211   1.266       .  A
C209        O215   1.261       .  A
C209        C771   1.484       .  S
C213        C781   1.474       .  S
In216       O218   2.243       .  S
In216       O219   2.243       .  S
In216       O227   2.275       .  S
In216       O221   2.238       .  S
In216       O223   2.279       .  S
In216       O224   2.222       .  S
In216       O225   2.252       .  S
In216       O228   2.281       .  S
C217        O223   1.262       .  A
C217        O225   1.256       .  A
C217        C911   1.486       .  S
O218        C226   1.258       .  A
O219        C226   1.257       .  A
C220        O227   1.265       .  A
C220        O221   1.259       .  A
C220        C831   1.487       .  S
C222        O224   1.261       .  A
C222        O228   1.267       .  A
C222        C768   1.484       .  S
C226        C758   1.473       .  S
C229        C230   1.547       .  S
C229        C235   1.529       .  S
C229       C1409   1.544   1_554  S
C229        C721   1.532       .  S
C230        H237   1.086       .  S
C230        C231   1.372       .  D
C231        C232   1.543       .  S
C231        C738   1.490       .  S
C232        C236   1.544       .  S
C232       C1410   1.539   1_554  S
C232        H238   1.111       .  S
C233       C1405   1.542       .  S
C233        H239   1.086       .  S
C233        C234   1.363       .  D
C234       C1408   1.539       .  S
C234        C748   1.481       .  S
C235        H240   1.087       .  S
C235        C236   1.364       .  D
C236        C731   1.490       .  S
C241        C247   1.536       .  S
C241        C245   1.546       .  S
C241       C1418   1.550   1_554  S
C241       C1111   1.537       .  S
C242       C1417   1.551       .  S
C242        H249   1.080       .  S
C242        C243   1.365       .  D
C243       C1420   1.535       .  S
C243        C801   1.481       .  S
C244        C248   1.538       .  S
C244        C246   1.539       .  S
C244       C1419   1.535   1_554  S
C244        H250   1.111       .  S
C245        H251   1.085       .  S
C245        C246   1.366       .  D
C246        C818   1.484       .  S
C247        H252   1.086       .  S
C247        C248   1.367       .  D
C248        C728   1.491       .  S
In253       O255   2.275       .  S
In253       O256   2.219       .  S
In253       O264   2.244       .  S
In253       O258   2.271       .  S
In253       O260   2.285       .  S
In253       O261   2.218       .  S
In253       O262   2.236       .  S
In253       O265   2.245       .  S
C254        O260   1.266       .  A
C254        O262   1.255       .  A
C254        C751   1.485       .  S
O255        C263   1.266       .  A
O256        C263   1.259       .  A
C257        O264   1.258       .  A
C257        O258   1.262       .  A
C257        C698   1.487       .  S
C259        O261   1.261       .  A
C259        O265   1.262       .  A
C259        C791   1.471       .  S
C263        C708   1.481       .  S
In266       O268   2.242       .  S
In266       O269   2.241       .  S
In266       O277   2.226       .  S
In266       O271   2.279       .  S
In266       O273   2.258       .  S
In266       O274   2.221       .  S
In266       O275   2.253       .  S
In266       O278   2.271       .  S
C267        O273   1.259       .  A
C267        O275   1.257       .  A
C267        C741   1.483       .  S
O268        C276   1.257       .  A
O269        C276   1.258       .  A
C270        O277   1.258       .  A
C270        O271   1.265       .  A
C270        C688   1.481       .  S
C272        O274   1.262       .  A
C272        O278   1.267       .  A
C272        C711   1.481       .  S
C276        C851   1.472       .  S
In279       O281   2.243       .  S
In279       O282   2.242       .  S
In279       O290   2.258       .  S
In279       O284   2.274       .  S
In279       O286   2.282       .  S
In279       O287   2.223       .  S
In279       O288   2.237       .  S
In279       O291   2.279       .  S
C280        O286   1.264       .  A
C280        O288   1.258       .  A
C280        C691   1.486       .  S
O281        C289   1.258       .  A
O282        C289   1.260       .  A
C283        O290   1.255       .  A
C283        O284   1.262       .  A
C283        C858   1.486       .  S
C285        O287   1.261       .  A
C285        O291   1.267       .  A
C285        C678   1.482       .  S
C289        C761   1.474       .  S
In292       O294   2.249       .  S
In292       O295   2.231       .  S
In292       O303   2.280       .  S
In292       O297   2.245       .  S
In292       O299   2.279       .  S
In292       O300   2.283       .  S
In292       O301   2.241       .  S
In292       O304   2.225       .  S
C293        O299   1.266       .  A
C293        O301   1.257       .  A
C293        C871   1.488       .  S
O294        C302   1.260       .  A
O295        C302   1.258       .  A
C296        O303   1.262       .  A
C296        O297   1.257       .  A
C296        C701   1.488       .  S
C298        O300   1.267       .  A
C298        O304   1.260       .  A
C298        C681   1.486       .  S
C302        C778   1.473       .  S
C305        C311   1.539       .  S
C305        C309   1.542       .  S
C305       C1482   1.551   1_554  S
C305        C718   1.534       .  S
C306       C1481   1.550       .  S
C306        H313   1.085       .  S
C306        C307   1.370       .  D
C307       C1484   1.539       .  S
C307        C671   1.485       .  S
C308        C312   1.541       .  S
C308        C310   1.535       .  S
C308       C1483   1.542   1_554  S
C308        H314   1.110       .  S
C309        H315   1.085       .  S
C309        C310   1.361       .  D
C310        C658   1.477       .  S
C311        H316   1.087       .  S
C311        C312   1.364       .  D
C312        C648   1.492       .  S
C317        C318   1.553       .  S
C317        C323   1.546       .  S
C317       C1497   1.547   1_554  S
C317       C1141   1.549       .  S
C318        H325   1.086       .  S
C318        C319   1.373       .  D
C319        C320   1.536       .  S
C319        C628   1.490       .  S
C320        C324   1.536       .  S
C320       C1498   1.538   1_554  S
C320        H326   1.111       .  S
C321       C1493   1.550       .  S
C321        H327   1.085       .  S
C321        C322   1.367       .  D
C322       C1496   1.537       .  S
C322        C641   1.484       .  S
C323        H328   1.086       .  S
C323        C324   1.367       .  D
C324        C651   1.492       .  S
In329       O331   2.234       .  S
In329       O332   2.230       .  S
In329       O340   2.221       .  S
In329       O334   2.286       .  S
In329       O336   2.274       .  S
In329       O337   2.233       .  S
In329       O338   2.234       .  S
In329       O341   2.266       .  S
C330        O336   1.263       .  A
C330        O338   1.257       .  A
C330        C598   1.482       .  S
O331        C339   1.261       .  A
O332        C339   1.262       .  A
C333        O340   1.254       .  A
C333        O334   1.265       .  A
C333        C591   1.482       .  S
C335        O337   1.259       .  A
C335        O341   1.264       .  A
C335        C608   1.482       .  S
C339        C618   1.468       .  S
In342       O344   2.262       .  S
In342       O345   2.213       .  S
In342       O353   2.225       .  S
In342       O347   2.267       .  S
In342       O349   2.276       .  S
In342       O350   2.224       .  S
In342       O351   2.223       .  S
In342       O354   2.273       .  S
C343        O349   1.265       .  A
C343        O351   1.258       .  A
C343        C571   1.484       .  S
O344        C352   1.261       .  A
O345        C352   1.258       .  A
C346        O353   1.257       .  A
C346        O347   1.262       .  A
C346        C581   1.479       .  S
C348        O350   1.259       .  A
C348        O354   1.266       .  A
C348        C611   1.481       .  S
C352        C561   1.472       .  S
In355       O357   2.246       .  S
In355       O358   2.248       .  S
In355       O366   2.226       .  S
In355       O360   2.286       .  S
In355       O362   2.260       .  S
In355       O363   2.223       .  S
In355       O364   2.238       .  S
In355       O367   2.250       .  S
C356        O362   1.259       .  A
C356        O364   1.259       .  A
C356        C578   1.479       .  S
O357        C365   1.261       .  A
O358        C365   1.259       .  A
C359        O366   1.254       .  A
C359        O360   1.263       .  A
C359        C638   1.483       .  S
C361        O363   1.261       .  A
C361        O367   1.264       .  A
C361        C541   1.475       .  S
C365        C551   1.478       .  S
In368       O370   2.275       .  S
In368       O371   2.224       .  S
In368       O379   2.248       .  S
In368       O373   2.290       .  S
In368       O375   2.281       .  S
In368       O376   2.233       .  S
In368       O377   2.246       .  S
In368       O380   2.249       .  S
C369        O375   1.261       .  A
C369        O377   1.258       .  A
C369        C601   1.486       .  S
O370        C378   1.264       .  A
O371        C378   1.258       .  A
C372        O379   1.256       .  A
C372        O373   1.266       .  A
C372        C631   1.493       .  S
C374        O376   1.259       .  A
C374        O380   1.262       .  A
C374        C528   1.475       .  S
C378        C538   1.477       .  S
C381        C387   1.552       .  S
C381        C385   1.546       .  S
C381       C1558   1.538   1_554  S
C381        C878   1.550       .  S
C382       C1557   1.535       .  S
C382        H389   1.086       .  S
C382        C383   1.364       .  D
C383       C1560   1.539       .  S
C383        C568   1.478       .  S
C384        C388   1.550       .  S
C384        C386   1.538       .  S
C384       C1559   1.540   1_554  S
C384        H390   1.111       .  S
C385        H391   1.084       .  S
C385        C386   1.365       .  D
C386        C588   1.482       .  S
C387        H392   1.084       .  S
C387        C388   1.376       .  D
C388        C518   1.516       .  S
C393        C394   1.549       .  S
C393        C399   1.538       .  S
C393       C1573   1.543   1_554  S
C393       C1071   1.543       .  S
C394        H401   1.084       .  S
C394        C395   1.374       .  D
C395        C396   1.547       .  S
C395        C498   1.501       .  S
C396        C400   1.554       .  S
C396       C1574   1.539   1_554  S
C396        H402   1.108       .  S
C397       C1569   1.544       .  S
C397        H403   1.085       .  S
C397        C398   1.362       .  D
C398       C1572   1.539       .  S
C398        C508   1.476       .  S
C399        H404   1.085       .  S
C399        C400   1.372       .  D
C400        C521   1.519       .  S
In405       O407   2.248       .  S
In405       O408   2.217       .  S
In405       O416   2.211       .  S
In405       O410   2.291       .  S
In405       O412   2.246       .  S
In405       O413   2.207       .  S
In405       O414   2.262       .  S
In405       O417   2.269       .  S
C406        O412   1.258       .  A
C406        O414   1.259       .  A
C406        C478   1.484       .  S
O407        C415   1.262       .  A
O408        C415   1.260       .  A
C409        O416   1.253       .  A
C409        O410   1.265       .  A
C409        C511   1.482       .  S
C411        O413   1.259       .  A
C411        O417   1.266       .  A
C411        C488   1.477       .  S
C415        C558   1.473       .  S
In418       O420   2.243       .  S
In418       O421   2.231       .  S
In418       O429   2.238       .  S
In418       O423   2.271       .  S
In418       O425   2.268       .  S
In418       O426   2.196       .  S
In418       O427   2.247       .  S
In418       O430   2.283       .  S
C419        O425   1.261       .  A
C419        O427   1.256       .  A
C419        C501   1.485       .  S
O420        C428   1.260       .  A
O421        C428   1.259       .  A
C422        O429   1.256       .  A
C422        O423   1.262       .  A
C422        C468   1.478       .  S
C424        O426   1.258       .  A
C424        O430   1.268       .  A
C424        C491   1.479       .  S
C428        C621   1.467       .  S
In431       O433   2.235       .  S
In431       O434   2.234       .  S
In431       O442   2.290       .  S
In431       O436   2.205       .  S
In431       O438   2.264       .  S
In431       O439   2.207       .  S
In431       O440   2.236       .  S
In431       O443   2.274       .  S
C432        O438   1.263       .  A
C432        O440   1.258       .  A
C432        C471   1.479       .  S
O433        C441   1.261       .  A
O434        C441   1.262       .  A
C435        O442   1.267       .  A
C435        O436   1.253       .  A
C435        C661   1.481       .  S
C437        O439   1.258       .  A
C437        O443   1.264       .  A
C437        C461   1.472       .  S
C441        C531   1.474       .  S
In444       O446   2.243       .  S
In444       O447   2.257       .  S
In444       O455   2.274       .  S
In444       O449   2.219       .  S
In444       O451   2.296       .  S
In444       O452   2.221       .  S
In444       O453   2.200       .  S
In444       O456   2.261       .  S
C445        O451   1.266       .  A
C445        O453   1.252       .  A
C445        C668   1.483       .  S
O446        C454   1.258       .  A
O447        C454   1.259       .  A
C448        O455   1.265       .  A
C448        O449   1.258       .  A
C448        C481   1.480       .  S
C450        O452   1.260       .  A
C450        O456   1.262       .  A
C450        C458   1.478       .  S
C454        C548   1.479       .  S
C457        C458   1.403       .  A
C457        C462   1.392       .  A
C457        H464   1.083       .  S
C458        C459   1.410       .  A
C459        C460   1.404       .  A
C459        F466   1.358       .  S
C460        C461   1.404       .  A
C460        H465   1.083       .  S
C461        C462   1.403       .  A
C462        F463   1.358       .  S
C467        C468   1.404       .  A
C467        C472   1.400   1_455  A
C467        H474   1.083       .  S
C468        C469   1.408       .  A
C469        C470   1.400   1_455  A
C469        F476   1.358       .  S
C470        C471   1.404       .  A
C470        H475   1.082       .  S
C471        C472   1.408       .  A
C472        F473   1.358       .  S
C477        C478   1.408       .  A
C477        C482   1.403   1_455  A
C477        H484   1.084       .  S
C478        C479   1.408       .  A
C479        C480   1.396   1_455  A
C479        F486   1.358       .  S
C480        C481   1.404       .  A
C480        H485   1.084       .  S
C481        C482   1.407       .  A
C482        F483   1.357       .  S
C487        C488   1.407       .  A
C487        C492   1.406       .  A
C487        H494   1.083       .  S
C488        C489   1.406       .  A
C489        C490   1.389       .  A
C489        F496   1.358       .  S
C490        C491   1.404       .  A
C490        H495   1.083       .  S
C491        C492   1.408       .  A
C492        F493   1.357       .  S
C497        C498   1.406       .  A
C497        C502   1.404       .  A
C497        H504   1.083       .  S
C498        C499   1.413       .  A
C499        C500   1.400       .  A
C499        F506   1.353       .  S
C500        C501   1.402       .  A
C500        H505   1.083       .  S
C501        C502   1.409       .  A
C502        F503   1.357       .  S
C507        C508   1.394       .  A
C507        C512   1.392       .  A
C507        H514   1.080       .  S
C508        C509   1.408       .  A
C509        C510   1.404       .  A
C509        F516   1.358       .  S
C510        C511   1.406       .  A
C510        H515   1.083       .  S
C511        C512   1.412       .  A
C512        F513   1.357       .  S
C517        C518   1.410   1_556  A
C517        C522   1.415       .  A
C517       H1700   1.083       .  S
C518        C519   1.412       .  A
C519        C520   1.406       .  A
C519        F526   1.357       .  S
C520        C521   1.410       .  A
C520        H525   1.082       .  S
C521        C522   1.415   1_554  A
C522       F1699   1.355       .  S
F523       C1698   1.354       .  S
H524       C1693   1.082       .  S
C527        C528   1.404       .  A
C527        C532   1.398       .  A
C527        H534   1.082       .  S
C528        C529   1.407       .  A
C529        C530   1.395       .  A
C529        F536   1.357       .  S
C530        C531   1.403       .  A
C530        H535   1.082       .  S
C531        C532   1.408       .  A
C532        F533   1.358       .  S
C537        C538   1.405       .  A
C537        C542   1.402       .  A
C537        H544   1.083       .  S
C538        C539   1.406       .  A
C539        C540   1.394       .  A
C539        F546   1.358       .  S
C540        C541   1.403       .  A
C540        H545   1.084       .  S
C541        C542   1.407       .  A
C542        F543   1.357       .  S
C547        C548   1.405       .  A
C547        C552   1.399       .  A
C547        H554   1.082       .  S
C548        C549   1.407       .  A
C549        C550   1.396       .  A
C549        F556   1.357       .  S
C550        C551   1.403       .  A
C550        H555   1.083       .  S
C551        C552   1.409       .  A
C552        F553   1.358       .  S
C557        C558   1.406       .  A
C557        C562   1.400       .  A
C557        H564   1.084       .  S
C558        C559   1.406       .  A
C559        C560   1.389       .  A
C559        F566   1.358       .  S
C560        C561   1.402       .  A
C560        H565   1.083       .  S
C561        C562   1.407       .  A
C562        F563   1.357       .  S
C567        C568   1.405       .  A
C567        C572   1.403       .  A
C567       H1750   1.086       .  S
C568        C569   1.399       .  A
C569        C570   1.397       .  A
C569        F576   1.357       .  S
C570        C571   1.408       .  A
C570        H575   1.088       .  S
C571        C572   1.409       .  A
C572        F573   1.357       .  S
H574       C1743   1.086   1_554  S
C577        C578   1.403       .  A
C577        C582   1.395   1_655  A
C577        H584   1.084       .  S
C578        C579   1.409       .  A
C579        C580   1.402   1_655  A
C579        F586   1.358       .  S
C580        C581   1.406       .  A
C580        H585   1.083       .  S
C581        C582   1.407       .  A
C582        F583   1.357       .  S
C587        C588   1.398       .  A
C587        C592   1.396       .  A
C587        H594   1.082       .  S
C588        C589   1.410       .  A
C589        C590   1.404       .  A
C589        F596   1.357       .  S
C590        C591   1.404       .  A
C590        H595   1.082       .  S
C591        C592   1.412       .  A
C592        F593   1.358       .  S
C597        C598   1.404       .  A
C597        C602   1.398   1_455  A
C597        H604   1.084       .  S
C598        C599   1.408       .  A
C599        C600   1.405   1_455  A
C599        F606   1.358       .  S
C600        C601   1.408       .  A
C600        H605   1.083       .  S
C601        C602   1.407       .  A
C602        F603   1.357       .  S
C607        C608   1.406       .  A
C607        C612   1.403       .  A
C607        H614   1.084       .  S
C608        C609   1.408       .  A
C609        C610   1.396       .  A
C609        F616   1.358       .  S
C610        C611   1.405       .  A
C610        H615   1.084       .  S
C611        C612   1.407       .  A
C612        F613   1.357       .  S
C617        C618   1.402       .  A
C617        C622   1.393       .  A
C617        H624   1.083       .  S
C618        C619   1.407       .  A
C619        C620   1.396       .  A
C619        F626   1.358       .  S
C620        C621   1.402       .  A
C620        H625   1.083       .  S
C621        C622   1.406       .  A
C622        F623   1.358       .  S
C627        C628   1.402       .  A
C627        C632   1.402       .  A
C627        H634   1.081       .  S
C628        C629   1.408       .  A
C629        C630   1.407       .  A
C629        F636   1.357       .  S
C630        C631   1.407       .  A
C630        H635   1.082       .  S
C631        C632   1.413       .  A
C632        F633   1.358       .  S
C637        C638   1.407       .  A
C637        C642   1.395       .  A
C637        H644   1.083       .  S
C638        C639   1.407       .  A
C639        C640   1.404       .  A
C639        F646   1.357       .  S
C640        C641   1.407       .  A
C640        H645   1.083       .  S
C641        C642   1.401       .  A
C642        F643   1.356       .  S
C647        C648   1.406   1_556  A
C647        C652   1.408       .  A
C647       H1830   1.084       .  S
C648        C649   1.406       .  A
C649        C650   1.406       .  A
C649        F656   1.356       .  S
C650        C651   1.405       .  A
C650        H655   1.084       .  S
C651        C652   1.407   1_554  A
C652       F1829   1.357       .  S
F653       C1828   1.357       .  S
H654       C1823   1.084       .  S
C657        C658   1.407       .  A
C657        C662   1.403       .  A
C657        H664   1.082       .  S
C658        C659   1.397       .  A
C659        C660   1.394       .  A
C659        F666   1.357       .  S
C660        C661   1.409       .  A
C660        H665   1.081       .  S
C661        C662   1.406       .  A
C662        F663   1.357       .  S
C667        C668   1.405       .  A
C667        C672   1.406       .  A
C667        H674   1.082       .  S
C668        C669   1.411       .  A
C669        C670   1.391       .  A
C669        F676   1.358       .  S
C670        C671   1.398       .  A
C670        H675   1.082       .  S
C671        C672   1.412       .  A
C672       F1849   1.357       .  S
F673       C1848   1.357       .  S
C677        C678   1.402       .  A
C677        C682   1.396       .  A
C677        H684   1.084       .  S
C678        C679   1.408       .  A
C679        C680   1.408       .  A
C679        F686   1.357       .  S
C680        C681   1.408       .  A
C680        H685   1.083       .  S
C681        C682   1.408       .  A
C682        F683   1.358       .  S
C687        C688   1.404       .  A
C687        C692   1.398   1_545  A
C687        H694   1.083       .  S
C688        C689   1.407       .  A
C689        C690   1.405   1_545  A
C689        F696   1.357       .  S
C690        C691   1.407       .  A
C690        H695   1.083       .  S
C691        C692   1.408       .  A
C692        F693   1.358       .  S
C697        C698   1.407       .  A
C697        C702   1.405   1_545  A
C697        H704   1.082       .  S
C698        C699   1.408       .  A
C699        C700   1.399   1_545  A
C699        F706   1.358       .  S
C700        C701   1.406       .  A
C700        H705   1.082       .  S
C701        C702   1.409       .  A
C702        F703   1.357       .  S
C707        C708   1.404       .  A
C707        C712   1.394       .  A
C707        H714   1.083       .  S
C708        C709   1.408       .  A
C709        C710   1.406       .  A
C709        F716   1.357       .  S
C710        C711   1.407       .  A
C710        H715   1.084       .  S
C711        C712   1.406       .  A
C712        F713   1.358       .  S
C717        C722   1.400       .  A
C717       C1894   1.407       .  A
C717        H724   1.083       .  S
C718        C719   1.416       .  A
C718       C1893   1.406   1_554  A
C719        C720   1.401       .  A
C719        F726   1.357       .  S
C720        C721   1.407       .  A
C720        H725   1.081       .  S
C721       C1898   1.413   1_554  A
C722       C1897   1.413       .  A
C722        F723   1.357       .  S
C727        C728   1.407       .  A
C727        C732   1.407       .  A
C727        H734   1.083       .  S
C728       C1905   1.407   1_554  A
C729        C730   1.400       .  A
C729       C1904   1.409       .  A
C729        F736   1.357       .  S
C730       C1907   1.405       .  A
C730        H735   1.084       .  S
C731        C732   1.408       .  A
C731       C1906   1.404   1_554  A
C732        F733   1.357       .  S
C737        C738   1.405       .  A
C737        C742   1.397       .  A
C737        H744   1.087       .  S
C738        C739   1.407       .  A
C739        C740   1.402       .  A
C739        F746   1.357       .  S
C740        C741   1.406       .  A
C740        H745   1.087       .  S
C741        C742   1.408       .  A
C742        F743   1.358       .  S
C747        C748   1.406       .  A
C747        C752   1.403       .  A
C747        H754   1.084       .  S
C748        C749   1.400       .  A
C749        C750   1.399       .  A
C749        F756   1.358       .  S
C750        C751   1.409       .  A
C750        H755   1.084       .  S
C751        C752   1.406       .  A
C752        F753   1.357       .  S
C757        C758   1.404       .  A
C757        C762   1.396       .  A
C757        H764   1.083       .  S
C758        C759   1.407       .  A
C759        C760   1.395       .  A
C759        F766   1.357       .  S
C760        C761   1.403       .  A
C760        H765   1.082       .  S
C761        C762   1.407       .  A
C762        F763   1.358       .  S
C767        C768   1.407       .  A
C767        C772   1.408       .  A
C767        H774   1.083       .  S
C768        C769   1.407       .  A
C769        C770   1.396       .  A
C769        F776   1.358       .  S
C770        C771   1.403       .  A
C770        H775   1.083       .  S
C771        C772   1.409       .  A
C772        F773   1.357       .  S
C777        C778   1.404       .  A
C777        C782   1.397       .  A
C777        H784   1.083       .  S
C778        C779   1.406       .  A
C779        C780   1.395       .  A
C779        F786   1.357       .  S
C780        C781   1.403       .  A
C780        H785   1.082       .  S
C781        C782   1.408       .  A
C782        F783   1.358       .  S
C787        C788   1.406       .  A
C787        C792   1.400       .  A
C787        H794   1.085       .  S
C788        C789   1.406       .  A
C789        C790   1.390       .  A
C789        F796   1.357       .  S
C790        C791   1.401       .  A
C790        H795   1.084       .  S
C791        C792   1.407       .  A
C792        F793   1.358       .  S
C797        C798   1.406       .  A
C797        C802   1.394       .  A
C797        H804   1.084       .  S
C798        C799   1.404       .  A
C799        C800   1.403       .  A
C799        F806   1.357       .  S
C800        C801   1.408       .  A
C800        H805   1.083       .  S
C801        C802   1.401       .  A
C802        F803   1.358       .  S
C807        C808   1.407       .  A
C807        C812   1.405   1_545  A
C807        H814   1.083       .  S
C808        C809   1.408       .  A
C809        C810   1.399   1_545  A
C809        F816   1.358       .  S
C810        C811   1.406       .  A
C810        H815   1.084       .  S
C811        C812   1.409       .  A
C812        F813   1.357       .  S
C817        C818   1.404       .  A
C817        C822   1.406       .  A
C817        H824   1.083       .  S
C818        C819   1.404       .  A
C819        C820   1.393       .  A
C819        F826   1.352       .  S
C820        C821   1.401       .  A
C820        H825   1.083       .  S
C821        C822   1.413       .  A
C822        F823   1.357       .  S
C827        C828   1.407       .  A
C827        C832   1.400       .  A
C827        H834   1.083       .  S
C828        C829   1.409       .  A
C829        C830   1.404   1_545  A
C829        F836   1.357       .  S
C830        C831   1.406       .  A
C830        H835   1.083       .  S
C831        C832   1.409   1_565  A
C832        F833   1.358   1_545  S
C837        C838   1.406       .  A
C837        C842   1.405       .  A
C837        H844   1.083       .  S
C838        C839   1.405       .  A
C839        C840   1.392       .  A
C839        F846   1.358       .  S
C840        C841   1.404       .  A
C840        H845   1.084       .  S
C841        C842   1.409       .  A
C842        F843   1.357       .  S
C847        C848   1.404       .  A
C847        C852   1.395       .  A
C847        H854   1.083       .  S
C848        C849   1.406       .  A
C849        C850   1.394       .  A
C849        F856   1.357       .  S
C850        C851   1.403       .  A
C850        H855   1.082       .  S
C851        C852   1.407       .  A
C852        F853   1.358       .  S
C857        C858   1.409       .  A
C857        C862   1.407       .  A
C857        H864   1.080       .  S
C858        C859   1.405       .  A
C859        C860   1.398       .  A
C859        F866   1.358       .  S
C860        C861   1.406       .  A
C860        H865   1.073       .  S
C861        C862   1.407       .  A
C862        F863   1.357       .  S
C867        C868   1.402       .  A
C867        C872   1.400       .  A
C867       H2050   1.085       .  S
C868        C869   1.400       .  A
C869        C870   1.402       .  A
C869        F876   1.358       .  S
C870        C871   1.411       .  A
C870        H875   1.083       .  S
C871        C872   1.408       .  A
C872        F873   1.356       .  S
H874       C2043   1.085       .  S
C877        C882   1.405       .  A
C877       C2054   1.408       .  A
C877        H884   1.082       .  S
C878        C879   1.418       .  A
C878       C2053   1.409   1_554  A
C879        C880   1.408       .  A
C879        F886   1.357       .  S
C880        C881   1.410       .  A
C880        H885   1.080       .  S
C881       C2058   1.417   1_554  A
C882       C2057   1.416       .  A
C882        F883   1.356       .  S
C887        C888   1.408   1_556  A
C887        C892   1.409       .  A
C887       H2070   1.078       .  S
C888        C889   1.411       .  A
C889        C890   1.399       .  A
C889        F896   1.357       .  S
C890        C891   1.405       .  A
C890        H895   1.078       .  S
C891        C892   1.410   1_554  A
C892       F2069   1.357       .  S
F893       C2068   1.356       .  S
H894       C2063   1.078       .  S
C897        C898   1.402       .  A
C897        C902   1.405       .  A
C897        H904   1.076       .  S
C898        C899   1.406       .  A
C899        C900   1.404       .  A
C899        F906   1.357       .  S
C900        C901   1.405       .  A
C900        H905   1.077       .  S
C901        C902   1.413       .  A
C902        F903   1.358       .  S
C907        C908   1.408       .  A
C907        C912   1.404       .  A
C907        H914   1.081       .  S
C908        C909   1.414       .  A
C909        C910   1.403       .  A
C909        F916   1.355       .  S
C910        C911   1.403       .  A
C910        H915   1.083       .  S
C911        C912   1.407       .  A
C912        F913   1.357       .  S
C917        C918   1.404       .  A
C917        C922   1.396       .  A
C917        H924   1.083       .  S
C918        C919   1.406       .  A
C919        C920   1.393       .  A
C919        F926   1.358       .  S
C920        C921   1.403       .  A
C920        H925   1.082       .  S
C921        C922   1.406       .  A
C922        F923   1.358       .  S
C927        C928   1.405       .  A
C927        C932   1.401       .  A
C927        H934   1.083       .  S
C928        C929   1.408       .  A
C929        C930   1.393       .  A
C929        F936   1.358       .  S
C930        C931   1.404       .  A
C930        H935   1.084       .  S
C931        C932   1.407       .  A
C932        F933   1.357       .  S
C937        C938   1.404       .  A
C937        C942   1.395       .  A
C937        H944   1.084       .  S
C938        C939   1.408       .  A
C939        C940   1.405       .  A
C939        F946   1.357       .  S
C940        C941   1.407       .  A
C940        H945   1.083       .  S
C941        C942   1.407       .  A
C942        F943   1.358       .  S
C947        C948   1.402       .  A
C947        C952   1.392       .  A
C947        H954   1.084       .  S
C948        C949   1.407       .  A
C949        C950   1.396       .  A
C949        F956   1.358       .  S
C950        C951   1.404       .  A
C950        H955   1.083       .  S
C951        C952   1.405       .  A
C952        F953   1.357       .  S
C957        C958   1.408       .  A
C957        C962   1.408       .  A
C957        H964   1.083       .  S
C958        C959   1.407       .  A
C959        C960   1.395       .  A
C959        F966   1.358       .  S
C960        C961   1.402       .  A
C960        H965   1.084       .  S
C961        C962   1.408       .  A
C962        F963   1.357       .  S
C967        C968   1.406       .  A
C967        C972   1.404       .  A
C967        H974   1.083       .  S
C968        C969   1.409       .  A
C969        C970   1.400       .  A
C969        F976   1.358       .  S
C970        C971   1.406       .  A
C970        H975   1.084       .  S
C971        C972   1.409       .  A
C972        F973   1.357       .  S
C977        C978   1.406       .  A
C977        C982   1.399       .  A
C977        H984   1.083       .  S
C978        C979   1.406       .  A
C979        C980   1.396       .  A
C979        F986   1.357       .  S
C980        C981   1.405       .  A
C980        H985   1.083       .  S
C981        C982   1.407       .  A
C982        F983   1.358       .  S
C987        C988   1.407       .  A
C987        C992   1.405       .  A
C987        H994   1.083       .  S
C988        C989   1.407       .  A
C989        C990   1.398       .  A
C989        F996   1.357       .  S
C990        C991   1.405       .  A
C990        H995   1.084       .  S
C991        C992   1.409       .  A
C992        F993   1.357       .  S
C997        C998   1.405       .  A
C997       C1002   1.395       .  A
C997       H1004   1.083       .  S
C998        C999   1.409       .  A
C999       C1000   1.406       .  A
C999       F1006   1.357       .  S
C1000      C1001   1.406       .  A
C1000      H1005   1.083       .  S
C1001      C1002   1.407       .  A
C1002      F1003   1.358       .  S
C1007      C1008   1.405       .  A
C1007      C1012   1.399       .  A
C1007      H1014   1.084       .  S
C1008      C1009   1.407       .  A
C1009      C1010   1.403       .  A
C1009      F1016   1.357       .  S
C1010      C1011   1.406       .  A
C1010      H1015   1.083       .  S
C1011      C1012   1.410       .  A
C1012      F1013   1.358       .  S
C1017      C1018   1.406       .  A
C1017      C1022   1.394       .  A
C1017      H1024   1.084       .  S
C1018      C1019   1.410       .  A
C1019      C1020   1.409       .  A
C1019      F1026   1.357       .  S
C1020      C1021   1.408       .  A
C1020      H1025   1.083       .  S
C1021      C1022   1.407       .  A
C1022      F1023   1.358       .  S
C1027      C1028   1.404       .  A
C1027      C1032   1.395       .  A
C1027      H1034   1.083       .  S
C1028      C1029   1.406       .  A
C1029      C1030   1.394       .  A
C1029      F1036   1.357       .  S
C1030      C1031   1.403       .  A
C1030      H1035   1.083       .  S
C1031      C1032   1.407       .  A
C1032      F1033   1.358       .  S
C1037      C1038   1.410   1_556  A
C1037      C1042   1.401       .  A
C1037      H2220   1.081       .  S
C1038      C1039   1.413       .  A
C1039      C1040   1.403       .  A
C1039      F1046   1.356       .  S
C1040      C1041   1.409       .  A
C1040      H1045   1.083       .  S
C1041      C1042   1.416   1_554  A
C1042      F2219   1.356       .  S
F1043      C2218   1.356       .  S
H1044      C2213   1.081       .  S
C1047      C1048   1.408       .  A
C1047      C1052   1.407       .  A
C1047      H1054   1.082       .  S
C1048      C1049   1.411       .  A
C1049      C1050   1.395       .  A
C1049      F2232   1.352       .  S
C1050      C1051   1.401       .  A
C1050      H1055   1.083       .  S
C1051      C1052   1.410       .  A
C1052      F1053   1.357       .  S
F1056      C2225   1.353       .  S
C1057      C1058   1.407       .  A
C1057      C1062   1.405       .  A
C1057      H1064   1.084       .  S
C1058      C1059   1.398       .  A
C1059      C1060   1.398       .  A
C1059      F1066   1.357       .  S
C1060      C1061   1.410       .  A
C1060      H1065   1.083       .  S
C1061      C1062   1.408       .  A
C1062      F1063   1.357       .  S
C1067      C1068   1.413       .  A
C1067      C1072   1.408       .  A
C1067      H1074   1.078       .  S
C1068      C2245   1.411   1_554  A
C1069      C1070   1.403       .  A
C1069      C2244   1.411       .  A
C1069      F1076   1.357       .  S
C1070      C2247   1.411       .  A
C1070      H1075   1.082       .  S
C1071      C1072   1.413       .  A
C1071      C2246   1.410   1_554  A
C1072      F1073   1.356       .  S
C1077      C1078   1.408   1_554  A
C1077      C1082   1.409       .  A
C1077      H1084   1.083       .  S
C1078      C2255   1.407       .  A
C1079      C1080   1.400       .  A
C1079      C2254   1.407       .  A
C1079      F1086   1.357       .  S
C1080      C2257   1.410       .  A
C1080      H1085   1.083       .  S
C1081      C1082   1.411       .  A
C1081      C2256   1.410   1_554  A
C1082      F1083   1.355       .  S
C1087      C1088   1.406       .  A
C1087      C1092   1.403       .  A
C1087      H1094   1.083       .  S
C1088      C1089   1.409       .  A
C1089      C1090   1.398       .  A
C1089      F1096   1.354       .  S
C1090      C1091   1.402       .  A
C1090      H1095   1.083       .  S
C1091      C1092   1.409       .  A
C1092      F1093   1.357       .  S
C1097      C1098   1.399       .  A
C1097      C1102   1.400       .  A
C1097      H1104   1.081       .  S
C1098      C1099   1.408       .  A
C1099      C1100   1.405       .  A
C1099      F1106   1.357       .  S
C1100      C1101   1.405       .  A
C1100      H1105   1.081       .  S
C1101      C1102   1.414       .  A
C1102      F1103   1.358       .  S
C1107      C1112   1.400       .  A
C1107      C2284   1.409       .  A
C1107      H1114   1.078       .  S
C1108      C1109   1.411       .  A
C1108      C2283   1.408   1_554  A
C1109      C1110   1.401       .  A
C1109      F1116   1.357       .  S
C1110      C1111   1.409       .  A
C1110      H1115   1.084       .  S
C1111      C2288   1.415   1_554  A
C1112      C2287   1.415       .  A
C1112      F1113   1.354       .  S
C1117      C1118   1.405       .  A
C1117      C1122   1.406       .  A
C1117      H1124   1.082       .  S
C1118      C1119   1.412       .  A
C1119      C1120   1.396       .  A
C1119      F1126   1.358       .  S
C1120      C1121   1.397       .  A
C1120      H1125   1.082       .  S
C1121      C1122   1.410       .  A
C1122      F1123   1.358       .  S
C1127      C1128   1.407       .  A
C1127      C1132   1.400       .  A
C1127      H1134   1.084       .  S
C1128      C1129   1.410       .  A
C1129      C1130   1.402       .  A
C1129      F1136   1.357       .  S
C1130      C1131   1.405       .  A
C1130      H2311   1.079       .  S
C1131      C1132   1.405       .  A
C1132      F1133   1.357       .  S
H1135      C2306   1.079   1_554  S
C1137      C1138   1.412       .  A
C1137      C1142   1.407       .  A
C1137      H1144   1.084       .  S
C1138      C1177   1.551       .  S
C1138      C2315   1.417   1_554  A
C1139      C1140   1.406       .  A
C1139      C2314   1.416       .  A
C1139      F1146   1.355       .  S
C1140      C2317   1.412       .  A
C1140      H1145   1.081       .  S
C1141      C1142   1.411       .  A
C1141      C2316   1.413   1_554  A
C1142      F1143   1.357       .  S
C1147      C1148   1.409   1_556  A
C1147      C1152   1.411       .  A
C1147      H1154   1.083       .  S
C1148      C1149   1.409       .  A
C1149      C2326   1.400       .  A
C1149      F2332   1.357       .  S
C1150      C2325   1.401       .  A
C1150      C2327   1.406       .  A
C1150      H1155   1.083       .  S
C1151      C1152   1.412   1_554  A
C1151      C2326   1.406       .  A
C1152      F1153   1.357       .  S
F1156      C2325   1.357       .  S
C1157      C1158   1.403       .  A
C1157      C1162   1.402       .  A
C1157      H1164   1.084       .  S
C1158      C1159   1.402       .  A
C1159      C1160   1.402       .  A
C1159      F1166   1.358       .  S
C1160      C1161   1.410       .  A
C1160      H1165   1.083       .  S
C1161      C1162   1.408       .  A
C1162      F1163   1.356       .  S
C1167      C1168   1.407       .  A
C1167      C1172   1.402       .  A
C1167      H1174   1.087       .  S
C1168      C1169   1.411       .  A
C1169      C1170   1.402       .  A
C1169      F1176   1.357       .  S
C1170      C1171   1.406       .  A
C1170      H1175   1.085       .  S
C1171      C1172   1.408       .  A
C1172      F1173   1.357       .  S
C1177      C1178   1.551   1_554  S
C1178      H1185   1.081       .  S
C1178      C1179   1.369       .  D
C1179      C1180   1.540   1_556  S
C1179      C2347   1.492       .  S
C1180      H1186   1.110       .  S
C1181      H1187   1.085       .  S
C1181      C1182   1.364       .  D
C1182      C2334   1.474       .  S
C1183      C1184   1.373       .  D
C1184      C2327   1.504       .  S
C1189      C1190   1.542       .  S
C1189      C1195   1.536       .  S
C1189      C2284   1.539       .  S
C1190      H1197   1.086       .  S
C1190      C1191   1.367       .  D
C1191      C1192   1.541       .  S
C1191      C2297   1.484       .  S
C1192      C1196   1.547       .  S
C1192      H1198   1.111       .  S
C1193      H1199   1.084       .  S
C1193      C1194   1.366       .  D
C1194      C2307   1.485       .  S
C1195      H1200   1.085       .  S
C1195      C1196   1.370       .  D
C1196      C2324   1.503       .  S
C1201      C1207   1.537       .  S
C1201      C1205   1.547       .  S
C1201      C2244   1.542       .  S
C1202      H1209   1.085       .  S
C1202      C1203   1.366       .  D
C1203      C2274   1.483       .  S
C1204      C1208   1.544       .  S
C1204      C1206   1.540       .  S
C1204      H1210   1.110       .  S
C1205      H1211   1.083       .  S
C1205      C1206   1.368       .  D
C1206      C2264   1.488       .  S
C1207      H1212   1.086       .  S
C1207      C1208   1.370       .  D
C1208      C2254   1.500       .  S
C1213      C1214   1.545       .  S
C1213      C1219   1.541       .  S
C1213      C2217   1.545       .  S
C1214      H1221   1.085       .  S
C1214      C1215   1.364       .  D
C1215      C1216   1.542       .  S
C1215      C2234   1.481       .  S
C1216      C1220   1.549       .  S
C1216      H1222   1.108       .  S
C1217      H1223   1.086       .  S
C1217      C1218   1.373       .  D
C1218      C2224   1.495       .  S
C1219      H1224   1.082       .  S
C1219      C1220   1.366       .  D
C1220      C2257   1.508       .  S
In1225     O1227   2.231       .  S
In1225     O1228   2.238       .  S
In1225     O1236   2.240       .  S
In1225     O1230   2.279       .  S
In1225     O1232   2.295       .  S
In1225     O1233   2.215       .  S
In1225     O1234   2.224       .  S
In1225     O1237   2.286       .  S
C1226      O1232   1.265       .  A
C1226      O1234   1.254       .  A
C1226      C2294   1.485       .  S
O1227      C1235   1.260       .  A
O1228      C1235   1.260       .  A
C1229      O1236   1.256       .  A
C1229      O1230   1.263       .  A
C1229      C2187   1.485       .  S
C1231      O1233   1.260       .  A
C1231      O1237   1.267       .  A
C1231      C2194   1.486       .  S
C1235      C2207   1.471       .  S
In1238     O1240   2.247       .  S
In1238     O1241   2.236       .  S
In1238     O1249   2.236       .  S
In1238     O1243   2.280       .  S
In1238     O1245   2.266       .  S
In1238     O1246   2.222       .  S
In1238     O1247   2.236       .  S
In1238     O1250   2.276       .  S
C1239      O1245   1.263       .  A
C1239      O1247   1.259       .  A
C1239      C2164   1.484       .  S
O1240      C1248   1.260       .  A
O1241      C1248   1.259       .  A
C1242      O1249   1.255       .  A
C1242      O1243   1.263       .  A
C1242      C2337   1.484       .  S
C1244      O1246   1.260       .  A
C1244      O1250   1.265       .  A
C1244      C2174   1.483       .  S
C1248      C2204   1.474       .  S
In1251     O1253   2.253       .  S
In1251     O1254   2.241       .  S
In1251     O1262   2.255       .  S
In1251     O1256   2.276       .  S
In1251     O1258   2.282       .  S
In1251     O1259   2.216       .  S
In1251     O1260   2.230       .  S
In1251     O1263   2.282       .  S
C1252      O1258   1.264       .  A
C1252      O1260   1.258       .  A
C1252      C2144   1.484       .  S
O1253      C1261   1.259       .  A
O1254      C1261   1.259       .  A
C1255      O1262   1.257       .  A
C1255      O1256   1.260       .  A
C1255      C2304   1.488       .  S
C1257      O1259   1.261       .  A
C1257      O1263   1.267       .  A
C1257      C2197   1.483       .  S
C1261      C2154   1.478       .  S
In1264     O1266   2.250       .  S
In1264     O1267   2.250       .  S
In1264     O1275   2.222       .  S
In1264     O1269   2.288       .  S
In1264     O1271   2.266       .  S
In1264     O1272   2.226       .  S
In1264     O1273   2.259       .  S
In1264     O1276   2.267       .  S
C1265      O1271   1.261       .  A
C1265      O1273   1.258       .  A
C1265      C2344   1.488       .  S
O1266      C1274   1.257       .  A
O1267      C1274   1.258       .  A
C1268      O1275   1.258       .  A
C1268      O1269   1.264       .  A
C1268      C2134   1.482       .  S
C1270      O1272   1.262       .  A
C1270      O1276   1.267       .  A
C1270      C2177   1.483       .  S
C1274      C2157   1.476       .  S
In1277     O1279   2.234       .  S
In1277     O1280   2.231       .  S
In1277     O1288   2.243       .  S
In1277     O1282   2.269       .  S
In1277     O1284   2.287       .  S
In1277     O1285   2.216       .  S
In1277     O1286   2.226       .  S
In1277     O1289   2.266       .  S
C1278      O1284   1.266       .  A
C1278      O1286   1.255       .  A
C1278      C2277   1.488       .  S
O1279      C1287   1.260       .  A
O1280      C1287   1.258       .  A
C1281      O1288   1.258       .  A
C1281      O1282   1.261       .  A
C1281      C2147   1.486       .  S
C1283      O1285   1.260       .  A
C1283      O1289   1.267       .  A
C1283      C2114   1.479       .  S
C1287      C2124   1.468       .  S
In1290     O1292   2.237       .  S
In1290     O1293   2.242       .  S
In1290     O1301   2.258       .  S
In1290     O1295   2.249       .  S
In1290     O1297   2.277       .  S
In1290     O1298   2.209       .  S
In1290     O1299   2.222       .  S
In1290     O1302   2.267       .  S
C1291      O1297   1.265       .  A
C1291      O1299   1.259       .  A
C1291      C2137   1.478       .  S
O1292      C1300   1.257       .  A
O1293      C1300   1.257       .  A
C1294      O1301   1.258       .  A
C1294      O1295   1.260       .  A
C1294      C2227   1.482       .  S
C1296      O1298   1.260       .  A
C1296      O1302   1.267       .  A
C1296      C2104   1.478       .  S
C1300      C2127   1.469       .  S
In1303     O1305   2.249       .  S
In1303     O1306   2.233       .  S
In1303     O1314   2.249       .  S
In1303     O1308   2.262       .  S
In1303     O1310   2.268       .  S
In1303     O1311   2.223       .  S
In1303     O1312   2.227       .  S
In1303     O1315   2.264       .  S
C1304      O1310   1.265       .  A
C1304      O1312   1.259       .  A
C1304      C2184   1.481       .  S
O1305      C1313   1.259       .  A
O1306      C1313   1.257       .  A
C1307      O1314   1.256       .  A
C1307      O1308   1.261       .  A
C1307      C2267   1.478       .  S
C1309      O1311   1.259       .  A
C1309      O1315   1.265       .  A
C1309      C2117   1.479       .  S
C1313      C2094   1.473       .  S
In1316     O1318   2.236       .  S
In1316     O1319   2.237       .  S
In1316     O1327   2.233       .  S
In1316     O1321   2.262       .  S
In1316     O1323   2.294       .  S
In1316     O1324   2.217       .  S
In1316     O1325   2.221       .  S
In1316     O1328   2.262       .  S
C1317      O1323   1.266       .  A
C1317      O1325   1.254       .  A
C1317      C2237   1.486       .  S
O1318      C1326   1.259       .  A
O1319      C1326   1.259       .  A
C1320      O1327   1.260       .  A
C1320      O1321   1.263       .  A
C1320      C2167   1.483       .  S
C1322      O1324   1.260       .  A
C1322      O1328   1.265       .  A
C1322      C2107   1.477       .  S
C1326      C2097   1.471       .  S
C1329      C1330   1.552       .  S
C1329      C1335   1.538       .  S
C1329      C2057   1.550       .  S
C1330      H1337   1.083       .  S
C1330      C1331   1.375       .  D
C1331      C1332   1.547       .  S
C1331      C2084   1.506       .  S
C1332      C1336   1.548       .  S
C1332      H1338   1.109       .  S
C1333      H1339   1.085       .  S
C1333      C1334   1.370       .  D
C1334      C2074   1.488       .  S
C1335      H1340   1.084       .  S
C1335      C1336   1.366       .  D
C1336      C2064   1.502       .  S
C1341      C1347   1.548       .  S
C1341      C1345   1.549       .  S
C1341      C2214   1.542       .  S
C1342      H1349   1.086       .  S
C1342      C1343   1.359       .  D
C1343      C2044   1.473       .  S
C1344      C1348   1.541       .  S
C1344      C1346   1.539       .  S
C1344      H1350   1.110       .  S
C1345      H1351   1.084       .  S
C1345      C1346   1.373       .  D
C1346      C2037   1.493       .  S
C1347      H1352   1.085       .  S
C1347      C1348   1.370       .  D
C1348      C2067   1.499       .  S
In1353     O1355   2.237       .  S
In1353     O1356   2.238       .  S
In1353     O1364   2.252       .  S
In1353     O1358   2.268       .  S
In1353     O1360   2.275       .  S
In1353     O1361   2.220       .  S
In1353     O1362   2.238       .  S
In1353     O1365   2.271       .  S
C1354      O1360   1.265       .  A
C1354      O1362   1.259       .  A
C1354      C2004   1.488       .  S
O1355      C1363   1.258       .  A
O1356      C1363   1.258       .  A
C1357      O1364   1.256       .  A
C1357      O1358   1.262       .  A
C1357      C1997   1.485       .  S
C1359      O1361   1.260       .  A
C1359      O1365   1.266       .  A
C1359      C2014   1.479       .  S
C1363      C2024   1.469       .  S
In1366     O1368   2.251       .  S
In1366     O1369   2.225       .  S
In1366     O1377   2.238       .  S
In1366     O1371   2.265       .  S
In1366     O1373   2.286       .  S
In1366     O1374   2.211       .  S
In1366     O1375   2.213       .  S
In1366     O1378   2.277       .  S
C1367      O1373   1.265       .  A
C1367      O1375   1.253       .  A
C1367      C1974   1.476       .  S
O1368      C1376   1.261       .  A
O1369      C1376   1.259       .  A
C1370      O1377   1.259       .  A
C1370      O1371   1.262       .  A
C1370      C1984   1.485       .  S
C1372      O1374   1.260       .  A
C1372      O1378   1.266       .  A
C1372      C2017   1.481       .  S
C1376      C1964   1.473       .  S
In1379     O1381   2.240       .  S
In1379     O1382   2.247       .  S
In1379     O1390   2.239       .  S
In1379     O1384   2.288       .  S
In1379     O1386   2.291       .  S
In1379     O1387   2.280       .  S
In1379     O1388   2.245       .  S
In1379     O1391   2.223       .  S
C1380      O1386   1.263       .  A
C1380      O1388   1.258       .  A
C1380      C1987   1.488       .  S
O1381      C1389   1.259       .  A
O1382      C1389   1.261       .  A
C1383      O1390   1.256       .  A
C1383      O1384   1.265       .  A
C1383      C2077   1.490       .  S
C1385      O1387   1.266       .  A
C1385      O1391   1.261       .  A
C1385      C1947   1.484       .  S
C1389      C1957   1.476       .  S
In1392     O1394   2.246       .  S
In1392     O1395   2.240       .  S
In1392     O1403   2.276       .  S
In1392     O1397   2.249       .  S
In1392     O1399   2.284       .  S
In1392     O1400   2.219       .  S
In1392     O1401   2.258       .  S
In1392     O1404   2.286       .  S
C1393      O1399   1.263       .  A
C1393      O1401   1.256       .  A
C1393      C2087   1.489       .  S
O1394      C1402   1.259       .  A
O1395      C1402   1.257       .  A
C1396      O1403   1.265       .  A
C1396      O1397   1.259       .  A
C1396      C2007   1.489       .  S
C1398      O1400   1.260       .  A
C1398      O1404   1.267       .  A
C1398      C1944   1.485       .  S
C1402      C1934   1.474       .  S
C1405      C1406   1.548       .  S
C1405      C1411   1.533       .  S
C1405      C1897   1.534       .  S
C1406      H1413   1.085       .  S
C1406      C1407   1.372       .  D
C1407      C1408   1.544       .  S
C1407      C1914   1.492       .  S
C1408      C1412   1.545       .  S
C1408      H1414   1.110       .  S
C1409      H1415   1.086       .  S
C1409      C1410   1.363       .  D
C1410      C1924   1.481       .  S
C1411      H1416   1.087       .  S
C1411      C1412   1.365       .  D
C1412      C1907   1.495       .  S
C1417      C1423   1.539       .  S
C1417      C1421   1.545       .  S
C1417      C2287   1.541       .  S
C1418      H1425   1.081       .  S
C1418      C1419   1.364       .  D
C1419      C1977   1.479       .  S
C1420      C1424   1.542       .  S
C1420      C1422   1.539       .  S
C1420      H1426   1.111       .  S
C1421      H1427   1.086       .  S
C1421      C1422   1.365       .  D
C1422      C1994   1.483       .  S
C1423      H1428   1.086       .  S
C1423      C1424   1.369       .  D
C1424      C1904   1.496       .  S
In1429     O1431   2.279       .  S
In1429     O1432   2.217       .  S
In1429     O1440   2.246       .  S
In1429     O1434   2.269       .  S
In1429     O1436   2.290       .  S
In1429     O1437   2.215       .  S
In1429     O1438   2.233       .  S
In1429     O1441   2.250       .  S
C1430      O1436   1.266       .  A
C1430      O1438   1.255       .  A
C1430      C1927   1.485       .  S
O1431      C1439   1.266       .  A
O1432      C1439   1.259       .  A
C1433      O1440   1.259       .  A
C1433      O1434   1.262       .  A
C1433      C1874   1.488       .  S
C1435      O1437   1.260       .  A
C1435      O1441   1.262       .  A
C1435      C1967   1.470       .  S
C1439      C1884   1.483       .  S
In1442     O1444   2.239       .  S
In1442     O1445   2.239       .  S
In1442     O1453   2.228       .  S
In1442     O1447   2.280       .  S
In1442     O1449   2.259       .  S
In1442     O1450   2.220       .  S
In1442     O1451   2.256       .  S
In1442     O1454   2.275       .  S
C1443      O1449   1.259       .  A
C1443      O1451   1.257       .  A
C1443      C1917   1.484       .  S
O1444      C1452   1.257       .  A
O1445      C1452   1.258       .  A
C1446      O1453   1.258       .  A
C1446      O1447   1.266       .  A
C1446      C1864   1.481       .  S
C1448      O1450   1.262       .  A
C1448      O1454   1.267       .  A
C1448      C1887   1.484       .  S
C1452      C2027   1.471       .  S
In1455     O1457   2.242       .  S
In1455     O1458   2.243       .  S
In1455     O1466   2.252       .  S
In1455     O1460   2.272       .  S
In1455     O1462   2.280       .  S
In1455     O1463   2.221       .  S
In1455     O1464   2.238       .  S
In1455     O1467   2.280       .  S
C1456      O1462   1.263       .  A
C1456      O1464   1.258       .  A
C1456      C1867   1.486       .  S
O1457      C1465   1.257       .  A
O1458      C1465   1.260       .  A
C1459      O1466   1.255       .  A
C1459      O1460   1.263       .  A
C1459      C2034   1.483       .  S
C1461      O1463   1.261       .  A
C1461      O1467   1.267       .  A
C1461      C1854   1.482       .  S
C1465      C1937   1.474       .  S
In1468     O1470   2.249       .  S
In1468     O1471   2.232       .  S
In1468     O1479   2.282       .  S
In1468     O1473   2.245       .  S
In1468     O1475   2.279       .  S
In1468     O1476   2.285       .  S
In1468     O1477   2.238       .  S
In1468     O1480   2.224       .  S
C1469      O1475   1.265       .  A
C1469      O1477   1.256       .  A
C1469      C2047   1.487       .  S
O1470      C1478   1.260       .  A
O1471      C1478   1.258       .  A
C1472      O1479   1.262       .  A
C1472      O1473   1.257       .  A
C1472      C1877   1.489       .  S
C1474      O1476   1.267       .  A
C1474      O1480   1.260       .  A
C1474      C1857   1.485       .  S
C1478      C1954   1.474       .  S
C1481      C1487   1.540       .  S
C1481      C1485   1.543       .  S
C1481      C1894   1.536       .  S
C1482      H1489   1.084       .  S
C1482      C1483   1.371       .  D
C1483      C1847   1.490       .  S
C1484      C1488   1.540       .  S
C1484      C1486   1.534       .  S
C1484      H1490   1.111       .  S
C1485      H1491   1.084       .  S
C1485      C1486   1.363       .  D
C1486      C1834   1.479       .  S
C1487      H1492   1.087       .  S
C1487      C1488   1.364       .  D
C1488      C1824   1.492       .  S
C1493      C1494   1.552       .  S
C1493      C1499   1.544       .  S
C1493      C2317   1.547       .  S
C1494      H1501   1.086       .  S
C1494      C1495   1.372       .  D
C1495      C1496   1.537       .  S
C1495      C1804   1.489       .  S
C1496      C1500   1.537       .  S
C1496      H1502   1.111       .  S
C1497      H1503   1.084       .  S
C1497      C1498   1.364       .  D
C1498      C1817   1.482       .  S
C1499      H1504   1.086       .  S
C1499      C1500   1.365       .  D
C1500      C1827   1.492       .  S
In1505     O1507   2.240       .  S
In1505     O1508   2.233       .  S
In1505     O1516   2.223       .  S
In1505     O1510   2.289       .  S
In1505     O1512   2.276       .  S
In1505     O1513   2.233       .  S
In1505     O1514   2.236       .  S
In1505     O1517   2.264       .  S
C1506      O1512   1.263       .  A
C1506      O1514   1.258       .  A
C1506      C1774   1.483       .  S
O1507      C1515   1.262       .  A
O1508      C1515   1.261       .  A
C1509      O1516   1.253       .  A
C1509      O1510   1.264       .  A
C1509      C1767   1.481       .  S
C1511      O1513   1.260       .  A
C1511      O1517   1.265       .  A
C1511      C1784   1.482       .  S
C1515      C1794   1.471       .  S
In1518     O1520   2.258       .  S
In1518     O1521   2.223       .  S
In1518     O1529   2.219       .  S
In1518     O1523   2.270       .  S
In1518     O1525   2.273       .  S
In1518     O1526   2.224       .  S
In1518     O1527   2.234       .  S
In1518     O1530   2.266       .  S
C1519      O1525   1.264       .  A
C1519      O1527   1.259       .  A
C1519      C1747   1.485       .  S
O1520      C1528   1.259       .  A
O1521      C1528   1.257       .  A
C1522      O1529   1.257       .  A
C1522      O1523   1.262       .  A
C1522      C1757   1.479       .  S
C1524      O1526   1.260       .  A
C1524      O1530   1.267       .  A
C1524      C1787   1.480       .  S
C1528      C1737   1.470       .  S
In1531     O1533   2.247       .  S
In1531     O1534   2.239       .  S
In1531     O1542   2.220       .  S
In1531     O1536   2.287       .  S
In1531     O1538   2.255       .  S
In1531     O1539   2.221       .  S
In1531     O1540   2.237       .  S
In1531     O1543   2.262       .  S
C1532      O1538   1.260       .  A
C1532      O1540   1.260       .  A
C1532      C1754   1.479       .  S
O1533      C1541   1.261       .  A
O1534      C1541   1.259       .  A
C1535      O1542   1.254       .  A
C1535      O1536   1.263       .  A
C1535      C1814   1.480       .  S
C1537      O1539   1.260       .  A
C1537      O1543   1.265       .  A
C1537      C1717   1.480       .  S
C1541      C1727   1.475       .  S
In1544     O1546   2.291       .  S
In1544     O1547   2.225       .  S
In1544     O1555   2.243       .  S
In1544     O1549   2.304       .  S
In1544     O1551   2.282       .  S
In1544     O1552   2.236       .  S
In1544     O1553   2.255       .  S
In1544     O1556   2.256       .  S
C1545      O1551   1.262       .  A
C1545      O1553   1.259       .  A
C1545      C1777   1.489       .  S
O1546      C1554   1.265       .  A
O1547      C1554   1.258       .  A
C1548      O1555   1.255       .  A
C1548      O1549   1.266       .  A
C1548      C1807   1.495       .  S
C1550      O1552   1.259       .  A
C1550      O1556   1.262       .  A
C1550      C1704   1.477       .  S
C1554      C1714   1.485       .  S
C1557      C1563   1.553       .  S
C1557      C1561   1.543       .  S
C1557      C2054   1.547       .  S
C1558      H1565   1.086       .  S
C1558      C1559   1.365       .  D
C1559      C1744   1.482       .  S
C1560      C1564   1.551       .  S
C1560      C1562   1.539       .  S
C1560      H1566   1.111       .  S
C1561      H1567   1.084       .  S
C1561      C1562   1.364       .  D
C1562      C1764   1.481       .  S
C1563      H1568   1.083       .  S
C1563      C1564   1.377       .  D
C1564      C1694   1.518       .  S
C1569      C1570   1.548       .  S
C1569      C1575   1.539       .  S
C1569      C2247   1.543       .  S
C1570      H1577   1.084       .  S
C1570      C1571   1.370       .  D
C1571      C1572   1.546       .  S
C1571      C1674   1.498       .  S
C1572      C1576   1.554       .  S
C1572      H1578   1.107       .  S
C1573      H1579   1.085       .  S
C1573      C1574   1.360       .  D
C1574      C1684   1.476       .  S
C1575      H1580   1.085       .  S
C1575      C1576   1.373       .  D
C1576      C1697   1.522       .  S
In1581     O1583   2.228       .  S
In1581     O1584   2.227       .  S
In1581     O1592   2.211       .  S
In1581     O1586   2.290       .  S
In1581     O1588   2.250       .  S
In1581     O1589   2.201       .  S
In1581     O1590   2.264       .  S
In1581     O1593   2.259       .  S
C1582      O1588   1.259       .  A
C1582      O1590   1.259       .  A
C1582      C1654   1.486       .  S
O1583      C1591   1.262       .  A
O1584      C1591   1.261       .  A
C1585      O1592   1.253       .  A
C1585      O1586   1.266       .  A
C1585      C1687   1.482       .  S
C1587      O1589   1.259       .  A
C1587      O1593   1.266       .  A
C1587      C1664   1.469       .  S
C1591      C1734   1.471       .  S
In1594     O1596   2.248       .  S
In1594     O1597   2.233       .  S
In1594     O1605   2.245       .  S
In1594     O1599   2.273       .  S
In1594     O1601   2.268       .  S
In1594     O1602   2.192       .  S
In1594     O1603   2.247       .  S
In1594     O1606   2.264       .  S
C1595      O1601   1.262       .  A
C1595      O1603   1.254       .  A
C1595      C1677   1.482       .  S
O1596      C1604   1.261       .  A
O1597      C1604   1.259       .  A
C1598      O1605   1.257       .  A
C1598      O1599   1.261       .  A
C1598      C1644   1.481       .  S
C1600      O1602   1.259       .  A
C1600      O1606   1.268       .  A
C1600      C1667   1.472       .  S
C1604      C1797   1.472       .  S
In1607     O1609   2.238       .  S
In1607     O1610   2.240       .  S
In1607     O1618   2.287       .  S
In1607     O1612   2.209       .  S
In1607     O1614   2.267       .  S
In1607     O1615   2.213       .  S
In1607     O1616   2.239       .  S
In1607     O1619   2.277       .  S
C1608      O1614   1.263       .  A
C1608      O1616   1.258       .  A
C1608      C1647   1.482       .  S
O1609      C1617   1.260       .  A
O1610      C1617   1.262       .  A
C1611      O1618   1.267       .  A
C1611      O1612   1.254       .  A
C1611      C1837   1.480       .  S
C1613      O1615   1.259       .  A
C1613      O1619   1.265       .  A
C1613      C1637   1.474       .  S
C1617      C1707   1.477       .  S
In1620     O1622   2.247       .  S
In1620     O1623   2.244       .  S
In1620     O1631   2.280       .  S
In1620     O1625   2.225       .  S
In1620     O1627   2.305       .  S
In1620     O1628   2.218       .  S
In1620     O1629   2.210       .  S
In1620     O1632   2.271       .  S
C1621      O1627   1.266       .  A
C1621      O1629   1.253       .  A
C1621      C1844   1.488       .  S
O1622      C1630   1.259       .  A
O1623      C1630   1.258       .  A
C1624      O1631   1.265       .  A
C1624      O1625   1.258       .  A
C1624      C1657   1.482       .  S
C1626      O1628   1.260       .  A
C1626      O1632   1.263       .  A
C1626      C1634   1.480       .  S
C1630      C1724   1.474       .  S
C1633      C1634   1.404       .  A
C1633      C1638   1.393       .  A
C1633      H1640   1.083       .  S
C1634      C1635   1.410       .  A
C1635      C1636   1.406       .  A
C1635      F1642   1.358       .  S
C1636      C1637   1.405       .  A
C1636      H1641   1.083       .  S
C1637      C1638   1.402       .  A
C1638      F1639   1.357       .  S
C1643      C1644   1.404       .  A
C1643      C1648   1.401   1_455  A
C1643      H1650   1.083       .  S
C1644      C1645   1.407       .  A
C1645      C1646   1.401   1_455  A
C1645      F1652   1.357       .  S
C1646      C1647   1.404       .  A
C1646      H1651   1.082       .  S
C1647      C1648   1.409       .  A
C1648      F1649   1.358       .  S
C1653      C1654   1.408       .  A
C1653      C1658   1.404   1_455  A
C1653      H1660   1.084       .  S
C1654      C1655   1.408       .  A
C1655      C1656   1.397   1_455  A
C1655      F1662   1.357       .  S
C1656      C1657   1.404       .  A
C1656      H1661   1.084       .  S
C1657      C1658   1.407       .  A
C1658      F1659   1.357       .  S
C1663      C1664   1.404       .  A
C1663      C1668   1.402       .  A
C1663      H1670   1.083       .  S
C1664      C1665   1.405       .  A
C1665      C1666   1.388       .  A
C1665      F1672   1.359       .  S
C1666      C1667   1.404       .  A
C1666      H1671   1.083       .  S
C1667      C1668   1.406       .  A
C1668      F1669   1.357       .  S
C1673      C1674   1.407       .  A
C1673      C1678   1.404       .  A
C1673      H1680   1.083       .  S
C1674      C1675   1.411       .  A
C1675      C1676   1.397       .  A
C1675      F1682   1.353       .  S
C1676      C1677   1.400       .  A
C1676      H1681   1.083       .  S
C1677      C1678   1.410       .  A
C1678      F1679   1.358       .  S
C1683      C1684   1.394       .  A
C1683      C1688   1.394       .  A
C1683      H1690   1.081       .  S
C1684      C1685   1.408       .  A
C1685      C1686   1.403       .  A
C1685      F1692   1.358       .  S
C1686      C1687   1.405       .  A
C1686      H1691   1.084       .  S
C1687      C1688   1.413       .  A
C1688      F1689   1.357       .  S
C1693      C1694   1.410       .  A
C1693      C1698   1.414       .  A
C1694      C1695   1.412       .  A
C1695      C1696   1.406       .  A
C1695      F1702   1.356       .  S
C1696      C1697   1.410       .  A
C1696      H1701   1.081       .  S
C1697      C1698   1.416       .  A
C1703      C1704   1.404       .  A
C1703      C1708   1.399       .  A
C1703      H1710   1.082       .  S
C1704      C1705   1.407       .  A
C1705      C1706   1.396       .  A
C1705      F1712   1.357       .  S
C1706      C1707   1.403       .  A
C1706      H1711   1.081       .  S
C1707      C1708   1.409       .  A
C1708      F1709   1.358       .  S
C1713      C1714   1.407       .  A
C1713      C1718   1.406       .  A
C1713      H1720   1.083       .  S
C1714      C1715   1.408       .  A
C1715      C1716   1.394       .  A
C1715      F1722   1.358       .  S
C1716      C1717   1.403       .  A
C1716      H1721   1.084       .  S
C1717      C1718   1.408       .  A
C1718      F1719   1.357       .  S
C1723      C1724   1.404       .  A
C1723      C1728   1.396       .  A
C1723      H1730   1.083       .  S
C1724      C1725   1.406       .  A
C1725      C1726   1.397       .  A
C1725      F1732   1.357       .  S
C1726      C1727   1.404       .  A
C1726      H1731   1.083       .  S
C1727      C1728   1.408       .  A
C1728      F1729   1.358       .  S
C1733      C1734   1.405       .  A
C1733      C1738   1.396       .  A
C1733      H1740   1.084       .  S
C1734      C1735   1.406       .  A
C1735      C1736   1.392       .  A
C1735      F1742   1.358       .  S
C1736      C1737   1.403       .  A
C1736      H1741   1.083       .  S
C1737      C1738   1.406       .  A
C1738      F1739   1.357       .  S
C1743      C1744   1.405       .  A
C1743      C1748   1.403       .  A
C1744      C1745   1.401       .  A
C1745      C1746   1.399       .  A
C1745      F1752   1.357       .  S
C1746      C1747   1.407       .  A
C1746      H1751   1.087       .  S
C1747      C1748   1.410       .  A
C1748      F1749   1.358       .  S
C1753      C1754   1.403       .  A
C1753      C1758   1.395   1_655  A
C1753      H1760   1.084       .  S
C1754      C1755   1.409       .  A
C1755      C1756   1.402   1_655  A
C1755      F1762   1.358       .  S
C1756      C1757   1.406       .  A
C1756      H1761   1.083       .  S
C1757      C1758   1.407       .  A
C1758      F1759   1.358       .  S
C1763      C1764   1.397       .  A
C1763      C1768   1.396       .  A
C1763      H1770   1.082       .  S
C1764      C1765   1.410       .  A
C1765      C1766   1.404       .  A
C1765      F1772   1.358       .  S
C1766      C1767   1.404       .  A
C1766      H1771   1.082       .  S
C1767      C1768   1.412       .  A
C1768      F1769   1.358       .  S
C1773      C1774   1.404       .  A
C1773      C1778   1.399   1_455  A
C1773      H1780   1.084       .  S
C1774      C1775   1.408       .  A
C1775      C1776   1.405   1_455  A
C1775      F1782   1.358       .  S
C1776      C1777   1.408       .  A
C1776      H1781   1.083       .  S
C1777      C1778   1.408       .  A
C1778      F1779   1.357       .  S
C1783      C1784   1.405       .  A
C1783      C1788   1.402       .  A
C1783      H1790   1.084       .  S
C1784      C1785   1.408       .  A
C1785      C1786   1.398       .  A
C1785      F1792   1.358       .  S
C1786      C1787   1.405       .  A
C1786      H1791   1.084       .  S
C1787      C1788   1.406       .  A
C1788      F1789   1.357       .  S
C1793      C1794   1.402       .  A
C1793      C1798   1.394       .  A
C1793      H1800   1.083       .  S
C1794      C1795   1.406       .  A
C1795      C1796   1.397       .  A
C1795      F1802   1.357       .  S
C1796      C1797   1.403       .  A
C1796      H1801   1.083       .  S
C1797      C1798   1.408       .  A
C1798      F1799   1.358       .  S
C1803      C1804   1.400       .  A
C1803      C1808   1.400       .  A
C1803      H1810   1.082       .  S
C1804      C1805   1.408       .  A
C1805      C1806   1.409       .  A
C1805      F1812   1.357       .  S
C1806      C1807   1.408       .  A
C1806      H1811   1.083       .  S
C1807      C1808   1.414       .  A
C1808      F1809   1.357       .  S
C1813      C1814   1.407       .  A
C1813      C1818   1.393       .  A
C1813      H1820   1.083       .  S
C1814      C1815   1.407       .  A
C1815      C1816   1.403       .  A
C1815      F1822   1.357       .  S
C1816      C1817   1.408       .  A
C1816      H1821   1.083       .  S
C1817      C1818   1.400       .  A
C1818      F1819   1.356       .  S
C1823      C1824   1.405       .  A
C1823      C1828   1.407       .  A
C1824      C1825   1.406       .  A
C1825      C1826   1.406       .  A
C1825      F1832   1.357       .  S
C1826      C1827   1.404       .  A
C1826      H1831   1.084       .  S
C1827      C1828   1.408       .  A
C1833      C1834   1.408       .  A
C1833      C1838   1.402       .  A
C1833      H1840   1.082       .  S
C1834      C1835   1.399       .  A
C1835      C1836   1.396       .  A
C1835      F1842   1.357       .  S
C1836      C1837   1.410       .  A
C1836      H1841   1.081       .  S
C1837      C1838   1.404       .  A
C1838      F1839   1.357       .  S
C1843      C1844   1.406       .  A
C1843      C1848   1.408       .  A
C1843      H1850   1.082       .  S
C1844      C1845   1.411       .  A
C1845      C1846   1.393       .  A
C1845      F1852   1.357       .  S
C1846      C1847   1.399       .  A
C1846      H1851   1.082       .  S
C1847      C1848   1.413       .  A
C1853      C1854   1.402       .  A
C1853      C1858   1.396       .  A
C1853      H1860   1.084       .  S
C1854      C1855   1.408       .  A
C1855      C1856   1.409       .  A
C1855      F1862   1.357       .  S
C1856      C1857   1.408       .  A
C1856      H1861   1.083       .  S
C1857      C1858   1.407       .  A
C1858      F1859   1.358       .  S
C1863      C1864   1.404       .  A
C1863      C1868   1.399   1_545  A
C1863      H1870   1.083       .  S
C1864      C1865   1.406       .  A
C1865      C1866   1.405   1_545  A
C1865      F1872   1.357       .  S
C1866      C1867   1.407       .  A
C1866      H1871   1.083       .  S
C1867      C1868   1.409       .  A
C1868      F1869   1.358       .  S
C1873      C1874   1.407       .  A
C1873      C1878   1.405   1_545  A
C1873      H1880   1.082       .  S
C1874      C1875   1.409       .  A
C1875      C1876   1.400   1_545  A
C1875      F1882   1.358       .  S
C1876      C1877   1.407       .  A
C1876      H1881   1.082       .  S
C1877      C1878   1.409       .  A
C1878      F1879   1.357       .  S
C1883      C1884   1.404       .  A
C1883      C1888   1.394       .  A
C1883      H1890   1.083       .  S
C1884      C1885   1.409       .  A
C1885      C1886   1.407       .  A
C1885      F1892   1.357       .  S
C1886      C1887   1.408       .  A
C1886      H1891   1.084       .  S
C1887      C1888   1.406       .  A
C1888      F1889   1.358       .  S
C1893      C1898   1.399       .  A
C1893      H1900   1.082       .  S
C1894      C1895   1.416       .  A
C1895      C1896   1.401       .  A
C1895      F1902   1.356       .  S
C1896      C1897   1.407       .  A
C1896      H1901   1.080       .  S
C1898      F1899   1.357       .  S
C1903      C1904   1.407       .  A
C1903      C1908   1.407       .  A
C1903      H1910   1.083       .  S
C1905      C1906   1.397       .  A
C1905      F1912   1.357       .  S
C1906      H1911   1.084       .  S
C1907      C1908   1.408       .  A
C1908      F1909   1.357       .  S
C1913      C1914   1.406       .  A
C1913      C1918   1.398       .  A
C1913      H1920   1.087       .  S
C1914      C1915   1.408       .  A
C1915      C1916   1.402       .  A
C1915      F1922   1.357       .  S
C1916      C1917   1.407       .  A
C1916      H1921   1.087       .  S
C1917      C1918   1.408       .  A
C1918      F1919   1.358       .  S
C1923      C1924   1.407       .  A
C1923      C1928   1.405       .  A
C1923      H1930   1.084       .  S
C1924      C1925   1.400       .  A
C1925      C1926   1.398       .  A
C1925      F1932   1.358       .  S
C1926      C1927   1.409       .  A
C1926      H1931   1.084       .  S
C1927      C1928   1.407       .  A
C1928      F1929   1.357       .  S
C1933      C1934   1.404       .  A
C1933      C1938   1.396       .  A
C1933      H1940   1.083       .  S
C1934      C1935   1.407       .  A
C1935      C1936   1.395       .  A
C1935      F1942   1.357       .  S
C1936      C1937   1.403       .  A
C1936      H1941   1.082       .  S
C1937      C1938   1.408       .  A
C1938      F1939   1.358       .  S
C1943      C1944   1.408       .  A
C1943      C1948   1.409       .  A
C1943      H1950   1.083       .  S
C1944      C1945   1.407       .  A
C1945      C1946   1.395       .  A
C1945      F1952   1.358       .  S
C1946      C1947   1.403       .  A
C1946      H1951   1.084       .  S
C1947      C1948   1.410       .  A
C1948      F1949   1.357       .  S
C1953      C1954   1.404       .  A
C1953      C1958   1.397       .  A
C1953      H1960   1.083       .  S
C1954      C1955   1.407       .  A
C1955      C1956   1.396       .  A
C1955      F1962   1.358       .  S
C1956      C1957   1.403       .  A
C1956      H1961   1.082       .  S
C1957      C1958   1.408       .  A
C1958      F1959   1.357       .  S
C1963      C1964   1.406       .  A
C1963      C1968   1.400       .  A
C1963      H1970   1.085       .  S
C1964      C1965   1.406       .  A
C1965      C1966   1.389       .  A
C1965      F1972   1.357       .  S
C1966      C1967   1.401       .  A
C1966      H1971   1.084       .  S
C1967      C1968   1.407       .  A
C1968      F1969   1.358       .  S
C1973      C1974   1.407       .  A
C1973      C1978   1.394       .  A
C1973      H1980   1.084       .  S
C1974      C1975   1.404       .  A
C1975      C1976   1.403       .  A
C1975      F1982   1.357       .  S
C1976      C1977   1.407       .  A
C1976      H1981   1.083       .  S
C1977      C1978   1.401       .  A
C1978      F1979   1.358       .  S
C1983      C1984   1.407       .  A
C1983      C1988   1.405   1_545  A
C1983      H1990   1.083       .  S
C1984      C1985   1.408       .  A
C1985      C1986   1.399   1_545  A
C1985      F1992   1.358       .  S
C1986      C1987   1.405       .  A
C1986      H1991   1.084       .  S
C1987      C1988   1.409       .  A
C1988      F1989   1.357       .  S
C1993      C1994   1.402       .  A
C1993      C1998   1.404       .  A
C1993      H2000   1.083       .  S
C1994      C1995   1.405       .  A
C1995      C1996   1.397       .  A
C1995      F2002   1.353       .  S
C1996      C1997   1.402       .  A
C1996      H2001   1.083       .  S
C1997      C1998   1.412       .  A
C1998      F1999   1.357       .  S
C2003      C2004   1.407       .  A
C2003      C2008   1.401       .  A
C2003      H2010   1.084       .  S
C2004      C2005   1.408       .  A
C2005      C2006   1.404   1_545  A
C2005      F2012   1.357       .  S
C2006      C2007   1.406       .  A
C2006      H2011   1.083       .  S
C2007      C2008   1.410   1_565  A
C2008      F2009   1.358   1_545  S
C2013      C2014   1.407       .  A
C2013      C2018   1.406       .  A
C2013      H2020   1.083       .  S
C2014      C2015   1.406       .  A
C2015      C2016   1.393       .  A
C2015      F2022   1.358       .  S
C2016      C2017   1.404       .  A
C2016      H2021   1.084       .  S
C2017      C2018   1.409       .  A
C2018      F2019   1.357       .  S
C2023      C2024   1.403       .  A
C2023      C2028   1.395       .  A
C2023      H2030   1.083       .  S
C2024      C2025   1.405       .  A
C2025      C2026   1.394       .  A
C2025      F2032   1.357       .  S
C2026      C2027   1.403       .  A
C2026      H2031   1.083       .  S
C2027      C2028   1.407       .  A
C2028      F2029   1.358       .  S
C2033      C2034   1.408       .  A
C2033      C2038   1.405       .  A
C2033      H2040   1.080       .  S
C2034      C2035   1.405       .  A
C2035      C2036   1.400       .  A
C2035      F2042   1.358       .  S
C2036      C2037   1.407       .  A
C2036      H2041   1.074       .  S
C2037      C2038   1.407       .  A
C2038      F2039   1.357       .  S
C2043      C2044   1.401       .  A
C2043      C2048   1.399       .  A
C2044      C2045   1.399       .  A
C2045      C2046   1.401       .  A
C2045      F2052   1.358       .  S
C2046      C2047   1.411       .  A
C2046      H2051   1.083       .  S
C2047      C2048   1.408       .  A
C2048      F2049   1.356       .  S
C2053      C2058   1.406       .  A
C2053      H2060   1.081       .  S
C2054      C2055   1.418       .  A
C2055      C2056   1.407       .  A
C2055      F2062   1.357       .  S
C2056      C2057   1.410       .  A
C2056      H2061   1.080       .  S
C2058      F2059   1.357       .  S
C2063      C2064   1.407       .  A
C2063      C2068   1.408       .  A
C2064      C2065   1.411       .  A
C2065      C2066   1.401       .  A
C2065      F2072   1.357       .  S
C2066      C2067   1.406       .  A
C2066      H2071   1.078       .  S
C2067      C2068   1.409       .  A
C2073      C2074   1.401       .  A
C2073      C2078   1.404       .  A
C2073      H2080   1.075       .  S
C2074      C2075   1.407       .  A
C2075      C2076   1.405       .  A
C2075      F2082   1.357       .  S
C2076      C2077   1.405       .  A
C2076      H2081   1.077       .  S
C2077      C2078   1.413       .  A
C2078      F2079   1.358       .  S
C2083      C2084   1.409       .  A
C2083      C2088   1.406       .  A
C2083      H2090   1.082       .  S
C2084      C2085   1.413       .  A
C2085      C2086   1.404       .  A
C2085      F2092   1.355       .  S
C2086      C2087   1.403       .  A
C2086      H2091   1.083       .  S
C2087      C2088   1.408       .  A
C2088      F2089   1.357       .  S
C2093      C2094   1.404       .  A
C2093      C2098   1.396       .  A
C2093      H2100   1.083       .  S
C2094      C2095   1.407       .  A
C2095      C2096   1.394       .  A
C2095      F2102   1.358       .  S
C2096      C2097   1.403       .  A
C2096      H2101   1.082       .  S
C2097      C2098   1.406       .  A
C2098      F2099   1.358       .  S
C2103      C2104   1.406       .  A
C2103      C2108   1.403       .  A
C2103      H2110   1.083       .  S
C2104      C2105   1.407       .  A
C2105      C2106   1.393       .  A
C2105      F2112   1.358       .  S
C2106      C2107   1.403       .  A
C2106      H2111   1.084       .  S
C2107      C2108   1.408       .  A
C2108      F2109   1.357       .  S
C2113      C2114   1.405       .  A
C2113      C2118   1.395       .  A
C2113      H2120   1.084       .  S
C2114      C2115   1.407       .  A
C2115      C2116   1.402       .  A
C2115      F2122   1.357       .  S
C2116      C2117   1.405       .  A
C2116      H2121   1.083       .  S
C2117      C2118   1.407       .  A
C2118      F2119   1.358       .  S
C2123      C2124   1.403       .  A
C2123      C2128   1.393       .  A
C2123      H2130   1.084       .  S
C2124      C2125   1.406       .  A
C2125      C2126   1.393       .  A
C2125      F2132   1.358       .  S
C2126      C2127   1.403       .  A
C2126      H2131   1.083       .  S
C2127      C2128   1.406       .  A
C2128      F2129   1.357       .  S
C2133      C2134   1.407       .  A
C2133      C2138   1.406       .  A
C2133      H2140   1.083       .  S
C2134      C2135   1.406       .  A
C2135      C2136   1.396       .  A
C2135      F2142   1.358       .  S
C2136      C2137   1.402       .  A
C2136      H2141   1.084       .  S
C2137      C2138   1.407       .  A
C2138      F2139   1.357       .  S
C2143      C2144   1.406       .  A
C2143      C2148   1.404       .  A
C2143      H2150   1.083       .  S
C2144      C2145   1.408       .  A
C2145      C2146   1.398       .  A
C2145      F2152   1.358       .  S
C2146      C2147   1.405       .  A
C2146      H2151   1.084       .  S
C2147      C2148   1.409       .  A
C2148      F2149   1.357       .  S
C2153      C2154   1.404       .  A
C2153      C2158   1.396       .  A
C2153      H2160   1.083       .  S
C2154      C2155   1.408       .  A
C2155      C2156   1.399       .  A
C2155      F2162   1.358       .  S
C2156      C2157   1.405       .  A
C2156      H2161   1.083       .  S
C2157      C2158   1.406       .  A
C2158      F2159   1.357       .  S
C2163      C2164   1.406       .  A
C2163      C2168   1.403       .  A
C2163      H2170   1.083       .  S
C2164      C2165   1.408       .  A
C2165      C2166   1.397       .  A
C2165      F2172   1.358       .  S
C2166      C2167   1.405       .  A
C2166      H2171   1.084       .  S
C2167      C2168   1.408       .  A
C2168      F2169   1.357       .  S
C2173      C2174   1.405       .  A
C2173      C2178   1.395       .  A
C2173      H2180   1.083       .  S
C2174      C2175   1.409       .  A
C2175      C2176   1.405       .  A
C2175      F2182   1.357       .  S
C2176      C2177   1.407       .  A
C2176      H2181   1.083       .  S
C2177      C2178   1.407       .  A
C2178      F2179   1.358       .  S
C2183      C2184   1.404       .  A
C2183      C2188   1.398       .  A
C2183      H2190   1.084       .  S
C2184      C2185   1.407       .  A
C2185      C2186   1.403       .  A
C2185      F2192   1.357       .  S
C2186      C2187   1.406       .  A
C2186      H2191   1.083       .  S
C2187      C2188   1.410       .  A
C2188      F2189   1.358       .  S
C2193      C2194   1.404       .  A
C2193      C2198   1.393       .  A
C2193      H2200   1.084       .  S
C2194      C2195   1.410       .  A
C2195      C2196   1.409       .  A
C2195      F2202   1.357       .  S
C2196      C2197   1.407       .  A
C2196      H2201   1.083       .  S
C2197      C2198   1.405       .  A
C2198      F2199   1.358       .  S
C2203      C2204   1.405       .  A
C2203      C2208   1.395       .  A
C2203      H2210   1.082       .  S
C2204      C2205   1.406       .  A
C2205      C2206   1.395       .  A
C2205      F2212   1.357       .  S
C2206      C2207   1.404       .  A
C2206      H2211   1.083       .  S
C2207      C2208   1.406       .  A
C2208      F2209   1.358       .  S
C2213      C2214   1.409       .  A
C2213      C2218   1.401       .  A
C2214      C2215   1.413       .  A
C2215      C2216   1.405       .  A
C2215      F2222   1.357       .  S
C2216      C2217   1.410       .  A
C2216      H2221   1.083       .  S
C2217      C2218   1.416       .  A
C2223      C2224   1.407       .  A
C2223      C2228   1.405       .  A
C2223      H2230   1.082       .  S
C2224      C2225   1.411       .  A
C2225      C2226   1.395       .  A
C2226      C2227   1.401       .  A
C2226      H2231   1.083       .  S
C2227      C2228   1.408       .  A
C2228      F2229   1.357       .  S
C2233      C2234   1.407       .  A
C2233      C2238   1.405       .  A
C2233      H2240   1.084       .  S
C2234      C2235   1.398       .  A
C2235      C2236   1.397       .  A
C2235      F2242   1.357       .  S
C2236      C2237   1.410       .  A
C2236      H2241   1.083       .  S
C2237      C2238   1.408       .  A
C2238      F2239   1.357       .  S
C2243      C2244   1.412       .  A
C2243      C2248   1.404       .  A
C2243      H2250   1.077       .  S
C2245      C2246   1.401       .  A
C2245      F2252   1.357       .  S
C2246      H2251   1.083       .  S
C2247      C2248   1.413       .  A
C2248      F2249   1.356       .  S
C2253      C2254   1.409       .  A
C2253      C2258   1.410       .  A
C2253      H2260   1.083       .  S
C2255      C2256   1.399       .  A
C2255      F2262   1.357       .  S
C2256      H2261   1.083       .  S
C2257      C2258   1.411       .  A
C2258      F2259   1.356       .  S
C2263      C2264   1.406       .  A
C2263      C2268   1.402       .  A
C2263      H2270   1.083       .  S
C2264      C2265   1.408       .  A
C2265      C2266   1.396       .  A
C2265      F2272   1.354       .  S
C2266      C2267   1.401       .  A
C2266      H2271   1.083       .  S
C2267      C2268   1.408       .  A
C2268      F2269   1.357       .  S
C2273      C2274   1.399       .  A
C2273      C2278   1.400       .  A
C2273      H2280   1.081       .  S
C2274      C2275   1.407       .  A
C2275      C2276   1.404       .  A
C2275      F2282   1.357       .  S
C2276      C2277   1.405       .  A
C2276      H2281   1.081       .  S
C2277      C2278   1.414       .  A
C2278      F2279   1.358       .  S
C2283      C2288   1.399       .  A
C2283      H2290   1.079       .  S
C2284      C2285   1.411       .  A
C2285      C2286   1.403       .  A
C2285      F2292   1.357       .  S
C2286      C2287   1.410       .  A
C2286      H2291   1.084       .  S
C2288      F2289   1.354       .  S
C2293      C2294   1.404       .  A
C2293      C2298   1.406       .  A
C2293      H2300   1.082       .  S
C2294      C2295   1.412       .  A
C2295      C2296   1.397       .  A
C2295      F2302   1.358       .  S
C2296      C2297   1.398       .  A
C2296      H2301   1.082       .  S
C2297      C2298   1.410       .  A
C2298      F2299   1.357       .  S
C2303      C2304   1.408       .  A
C2303      C2308   1.400       .  A
C2303      H2310   1.085       .  S
C2304      C2305   1.409       .  A
C2305      C2306   1.402       .  A
C2305      F2312   1.357       .  S
C2306      C2307   1.405       .  A
C2307      C2308   1.403       .  A
C2308      F2309   1.357       .  S
C2313      C2314   1.411       .  A
C2313      C2318   1.406       .  A
C2313      H2320   1.084       .  S
C2315      C2316   1.404       .  A
C2315      F2322   1.354       .  S
C2316      H2321   1.080       .  S
C2317      C2318   1.412       .  A
C2318      F2319   1.357       .  S
C2323      C2324   1.408       .  A
C2323      C2328   1.410       .  A
C2323      H2330   1.083       .  S
C2324      C2325   1.409       .  A
C2326      H2331   1.083       .  S
C2327      C2328   1.413       .  A
C2328      F2329   1.357       .  S
C2333      C2334   1.403       .  A
C2333      C2338   1.402       .  A
C2333      H2340   1.084       .  S
C2334      C2335   1.399       .  A
C2335      C2336   1.397       .  A
C2335      F2342   1.358       .  S
C2336      C2337   1.409       .  A
C2336      H2341   1.083       .  S
C2337      C2338   1.409       .  A
C2338      F2339   1.357       .  S
C2343      C2344   1.407       .  A
C2343      C2348   1.404       .  A
C2343      H2350   1.088       .  S
C2344      C2345   1.410       .  A
C2345      C2346   1.401       .  A
C2345      F2352   1.357       .  S
C2346      C2347   1.404       .  A
C2346      H2351   1.086       .  S
C2347      C2348   1.407       .  A
C2348      F2349   1.357       .  S
