geometry optimzed in LAMMPS
_audit_creation_date              2020-11-30 
_audit_creation_method            'lammps2cif' 
_symmetry_space_group_name_H-M    'P1' 
_symmetry_Int_Tables_number       1 
_symmetry_cell_setting            triclinic 
loop_ 
_symmetry_equiv_pos_as_xyz 
  x,y,z 
_cell_length_a                    31.19703691 
_cell_length_b                    27.62652222214238 
_cell_length_c                    29.363964508746253 
_cell_angle_alpha                 88.64249136734743 
_cell_angle_beta                  91.59064859287518 
_cell_angle_gamma                 89.3852923318445 
loop_ 
_atom_site_label 
_atom_site_type_symbol 
_atom_site_fract_x 
_atom_site_fract_y 
_atom_site_fract_z 
_atom_site_charge 
O1          O  0.39380103  0.46429818  0.02509092    -0.80600
O2          O  0.09529408  0.04593388  0.02555110    -0.80600
O3          O  0.03709461  0.40051863  0.04133717    -0.80600
O4          O  0.45595767  0.10093351  0.04206321    -0.80600
O5          O  0.06703364  0.46713121  0.05688401    -0.80700
O6          O  0.44385612  0.02796348  0.06861326    -0.80600
O7          O  0.04152226  0.08383508  0.05836418    -0.80600
O8          O  0.45450793  0.42456381  0.04435862    -0.80600
C9          C  0.41377937  0.43129420  0.04885665     1.09100
C10         C  0.08093458  0.07317458  0.05670359     1.09000
C11         C  0.06483383  0.42216816  0.06394886     1.09100
C12         C  0.43834556  0.07332723  0.07035512     1.09000
O13         O  0.41302158  0.05757746  0.47659403    -0.80600
O14         O  0.10530744  0.45106783  0.47309028    -0.80700
O15         O  0.46070475  0.40449458  0.46107765    -0.80600
O16         O  0.05569772  0.09798952  0.46422106    -0.80600
O17         O  0.06393251  0.02747900  0.43368630    -0.80600
O18         O  0.43405795  0.47366331  0.44338337    -0.80600
O19         O  0.46878603  0.09710294  0.44913926    -0.80600
O20         O  0.04264408  0.42203259  0.44895351    -0.80600
Co21       Co  0.44241004  0.50065211  0.00751139     1.51500
Co22       Co  0.05996023  0.99504971  0.49466801     1.51700
Co23       Co  0.49981443  0.44436889  0.99916172     1.51600
Co24       Co  0.50506297  0.09200748  0.50303563     1.51500
O25         O  0.50120650  0.52032901  0.00041475    -1.42500
C26         C  0.43002306  0.08518796  0.44654739     1.09000
C27         C  0.08363770  0.42454985  0.44561710     1.09100
C28         C  0.43489108  0.42874473  0.43639008     1.09100
C29         C  0.07125727  0.07237492  0.43365737     1.09000
O30         O  0.32166481  0.27873565  0.30432594    -0.80600
O31         O  0.19274955  0.22433445  0.31630039    -0.80600
O32         O  0.21271238  0.32973943  0.29657293    -0.80600
O33         O  0.28747443  0.15558860  0.29973136    -0.80600
O34         O  0.15030598  0.29904569  0.27381354    -0.80700
O35         O  0.34254098  0.19564486  0.27116847    -0.80600
O36         O  0.20120995  0.15339234  0.28641133    -0.80600
O37         O  0.29384513  0.34759105  0.28770373    -0.80600
C38         C  0.32052689  0.32365056  0.31149574     1.09100
C39         C  0.18614116  0.17926401  0.31713764     1.09000
C40         C  0.17174193  0.32700813  0.30011309     1.09100
C41         C  0.32611167  0.16828015  0.30174717     1.09000
O42         O  0.31212337  0.22260607  0.17942272    -0.80600
O43         O  0.18988727  0.28409974  0.19169004    -0.80700
O44         O  0.30009085  0.32739112  0.20232561    -0.80600
O45         O  0.21321668  0.16599285  0.19226326    -0.80600
O46         O  0.15943265  0.20429335  0.22458794    -0.80600
O47         O  0.36071596  0.28763555  0.22177255    -0.80600
O48         O  0.29991971  0.14988385  0.20657609    -0.80600
O49         O  0.21895027  0.35067517  0.20884884    -0.80600
Co50       Co  0.31208054  0.25249924  0.24087626     1.51500
Co51       Co  0.19519930  0.25634194  0.25503721     1.51700
Co52       Co  0.25543652  0.30942132  0.24902822     1.51600
Co53       Co  0.25055918  0.16081208  0.24618485     1.51500
O54         O  0.25346427  0.23345213  0.24933237    -1.42500
C55         C  0.31762275  0.17720184  0.17809531     1.09000
C56         C  0.19238831  0.32905535  0.18470368     1.09100
C57         C  0.34067811  0.32001068  0.19733005     1.09100
C58         C  0.17380361  0.17651122  0.19390663     1.09000
C59         C  0.16114207  0.15464019  0.11446055    -0.06200
C60         C  0.14618422  0.15369965  0.15925628    -0.00300
C61         C  0.11200157  0.12301225  0.17071155    -0.08900
C62         C  0.09359552  0.09465303  0.13639455    -0.06300
C63         C  0.10863309  0.09553224  0.09159941    -0.00300
C64         C  0.14317849  0.12576946  0.08032386    -0.08800
C65         C  0.16024634  0.12859285  0.03244746     0.61600
H66         H  0.18787935  0.17787319  0.10666121     0.12300
H67         H  0.06661901  0.07173782  0.14410793     0.12300
C68         C  0.09593229  0.11905405  0.21897221     0.61800
F69         F  0.19383606  0.16070066  0.02899932    -0.23300
F70         F  0.12801451  0.14405406  0.00217737    -0.20700
F71         F  0.17499334  0.08346127  0.02025930    -0.20300
F72         F  0.08115351  0.16374116  0.23234452    -0.20400
F73         F  0.12887710  0.10332381  0.24829025    -0.20700
F74         F  0.06265109  0.08654082  0.22257489    -0.23400
C75         C  0.09588629  0.14809201  0.39768279    -0.06200
C76         C  0.10031922  0.09732525  0.40143896    -0.00300
C77         C  0.13493656  0.07471087  0.37969706    -0.08900
C78         C  0.16313280  0.10375784  0.35497008    -0.06300
C79         C  0.15821738  0.15444928  0.35058003    -0.00300
C80         C  0.12408840  0.17714595  0.37305182    -0.08800
C81         C  0.11568534  0.23118047  0.36986158     0.61600
H82         H  0.06968163  0.16538218  0.41461175     0.12300
H83         H  0.18957789  0.08657292  0.33828773     0.12300
C84         C  0.14360612  0.02077683  0.38356946     0.61800
F85         F  0.08165997  0.24544007  0.39593016    -0.23300
F86         F  0.10561529  0.24396368  0.32515826    -0.20700
F87         F  0.15151342  0.25560442  0.38519003    -0.20300
F88         F  0.10848867  0.99610248  0.36684632    -0.20400
F89         F  0.15201312  0.00825247  0.42869226    -0.20700
F90         F  0.17874118  0.00662485  0.35910652    -0.23400
C91         C  0.13875947  0.32652620  0.12156561    -0.06200
C92         C  0.16246661  0.35493374  0.15199758    -0.00300
C93         C  0.15340081  0.40551568  0.15359935    -0.08900
C94         C  0.12022169  0.42499980  0.12528137    -0.06300
C95         C  0.09608335  0.39647207  0.09533665    -0.00300
C96         C  0.10591389  0.34614061  0.09285319    -0.08800
C97         C  0.08305338  0.31282042  0.05972829     0.61600
H98         H  0.14609517  0.28819915  0.12060783     0.12300
H99         H  0.11279671  0.46329728  0.12635133     0.12300
C100        C  0.17748192  0.43932367  0.18530291     0.61800
F101        F  0.09905367  0.26584037  0.06281456    -0.23300
F102        F  0.10415701  0.34093503  0.50570829    -0.20700
F103        F  0.03988451  0.31104307  0.06906037    -0.20300
F104        F  0.22073436  0.43837393  0.17612233    -0.20400
F105        F  0.17147208  0.42528022  0.23018758    -0.20700
F106        F  0.16341722  0.48691796  0.17999209    -0.23400
C107        C  0.38983302  0.14289168  0.16675056    -0.06200
C108        C  0.34888366  0.15437494  0.14799514    -0.00300
C109        C  0.33649115  0.13571588  0.10531504    -0.08900
C110        C  0.36611593  0.10725772  0.08190684    -0.06300
C111        C  0.40706156  0.09580302  0.10062741    -0.00300
C112        C  0.41937873  0.11418743  0.14344603    -0.08800
C113        C  0.46385975  0.10401205  0.16363464     0.61600
H114        H  0.39834581  0.15627951  0.20019498     0.12300
H115        H  0.35765056  0.09399552  0.04840350     0.12300
C116        C  0.29184690  0.14536224  0.08535816     0.61800
F117        F  0.41958059  0.04348390  0.71503400    -0.23300
F118        F  0.46961082  0.05366801  0.66252366    -0.20700
F119        F  0.41435893  0.00311562  0.64997650    -0.20300
F120        F  0.28440280  0.19476238  0.08146861    -0.20400
F121        F  0.26195002  0.12493539  0.11365840    -0.20700
F122        F  0.28646315  0.12583851  0.04264806    -0.23400
C123        C  0.34273882  0.39852596  0.35173698    -0.06200
C124        C  0.35005024  0.34878613  0.34470438    -0.00300
C125        C  0.38689246  0.32666362  0.36622130    -0.08900
C126        C  0.41321773  0.35433522  0.39528230    -0.06300
C127        C  0.40586195  0.40399596  0.40245506    -0.00300
C128        C  0.36948750  0.42642834  0.38023630    -0.08800
C129        C  0.35828310  0.47941431  0.38649205     0.61600
H130        H  0.31578531  0.41606793  0.33404568     0.12300
H131        H  0.43987955  0.33663160  0.41330231     0.12300
C132        C  0.39906946  0.27423422  0.35863266     0.61800
F133        F  0.32144864  0.49364796  0.36218773    -0.23300
F134        F  0.39145135  0.50762246  0.37122193    -0.20700
F135        F  0.35147507  0.48777572  0.43200262    -0.20300
F136        F  0.40462224  0.26699033  0.31270146    -0.20400
F137        F  0.36707395  0.24483962  0.37461829    -0.20700
F138        F  0.43693175  0.26065596  0.38134826    -0.23400
C139        C  0.36211736  0.11895286  0.41744474    -0.06200
C140        C  0.40441044  0.10626261  0.40867010    -0.00300
C141        C  0.42166435  0.11574231  0.36491625    -0.08900
C142        C  0.39467435  0.13640305  0.33101018    -0.06300
C143        C  0.35229108  0.14860806  0.33973235    -0.00300
C144        C  0.33568632  0.14125769  0.38398844    -0.08800
C145        C  0.29102720  0.15787075  0.39694843     0.61600
H146        H  0.35012018  0.11208092  0.45125315     0.12300
H147        H  0.40646999  0.14321247  0.29711555     0.12300
C148        C  0.46796092  0.10444179  0.35320229     0.61800
F149        F  0.28654058  0.15764556  0.44377035    -0.23300
F150        F  0.26072524  0.12712291  0.37889952    -0.20700
F151        F  0.28297366  0.20466928  0.38090110    -0.20300
F152        F  0.47870823  0.05726449  0.36598811    -0.20400
F153        F  0.49506888  0.13606722  0.37524754    -0.20700
F154        F  0.47471863  0.10963799  0.30693291    -0.23400
C155        C  0.10598935  0.36025292  0.33374625    -0.06200
C156        C  0.15051331  0.35376079  0.33728836    -0.00300
C157        C  0.17284748  0.37083674  0.37693102    -0.08900
C158        C  0.14927760  0.39230272  0.41138609    -0.06300
C159        C  0.10477860  0.39873254  0.40788210    -0.00300
C160        C  0.08252507  0.38285193  0.36772660    -0.08800
C161        C  0.03444794  0.38993153  0.35929112     0.61600
H162        H  0.08948741  0.34743026  0.30355315     0.12300
H163        H  0.16575588  0.40478832  0.44172332     0.12300
C164        C  0.22130056  0.36735534  0.38379337     0.61800
F165        F  0.02116235  0.37530828  0.31640379    -0.23300
F166        F  0.02355397  0.43840236  0.36234571    -0.20700
F167        F  0.01236313  0.36266724  0.39075398    -0.20300
F168        F  0.24042771  0.39456526  0.35014879    -0.20400
F169        F  0.23480688  0.31956335  0.38247027    -0.20700
F170        F  0.23523555  0.38525514  0.42526165    -0.23400
C171        C  0.33333391  0.37188291  0.12766116    -0.06200
C172        C  0.36112545  0.34746387  0.15969160    -0.00300
C173        C  0.40591870  0.34984043  0.15399443    -0.08900
C174        C  0.42092074  0.37742939  0.11713418    -0.06300
C175        C  0.39316926  0.40239645  0.08545061    -0.00300
C176        C  0.34835634  0.39927298  0.09064128    -0.08800
C177        C  0.31619655  0.42409725  0.05762709     0.61600
H178        H  0.29907808  0.36944962  0.13159319     0.12300
H179        H  0.45517532  0.37982578  0.11323547     0.12300
C180        C  0.43812850  0.32403695  0.18630929     0.61800
F181        F  0.28227048  0.45616874  0.60230888    -0.23300
F182        F  0.31304082  0.44240003  0.53605367    -0.20700
F183        F  0.34063405  0.49761475  0.58416488    -0.20300
F184        F  0.43312958  0.27445795  0.18378819    -0.20400
F185        F  0.43205483  0.33852256  0.23047793    -0.20700
F186        F  0.48009934  0.33421364  0.17567421    -0.23400
O187        O  0.39329705  0.46347204  0.52500184    -0.80600
O188        O  0.09553750  0.04630933  0.52654077    -0.80600
O189        O  0.03822930  0.39750531  0.53646480    -0.80600
O190        O  0.45543821  0.10300777  0.54166613    -0.80600
O191        O  0.06543466  0.46444373  0.55553767    -0.80700
O192        O  0.44230555  0.03069827  0.56877696    -0.80600
O193        O  0.04139295  0.08492676  0.55777213    -0.80600
O194        O  0.45385045  0.42472481  0.54651669    -0.80600
C195        C  0.41300264  0.43145393  0.55021792     1.09100
C196        C  0.08077422  0.07402556  0.55708900     1.09000
C197        C  0.06438943  0.41927370  0.56106325     1.09100
C198        C  0.43675099  0.07611472  0.56971814     1.09000
O199        O  0.41371415  0.05558228  0.97685361    -0.80600
O200        O  0.10466547  0.45390232  0.97385915    -0.80700
O201        O  0.46185250  0.40701833  0.95922702    -0.80600
O202        O  0.05426427  0.09784183  0.96479212    -0.80600
O203        O  0.06195598  0.02791545  0.93310912    -0.80600
O204        O  0.43388184  0.47598560  0.94338403    -0.80600
O205        O  0.46872135  0.09593456  0.94875365    -0.80600
O206        O  0.04204736  0.42200593  0.95332991    -0.80600
Co207      Co  0.44222134  0.49930096  0.50710869     1.51500
Co208      Co  0.05936133  0.99475799  0.99391686     1.51700
Co209      Co  0.49912627  0.44222175  0.50035983     1.51600
Co210      Co  0.50545343  0.09054214  0.00256775     1.51500
O211        O  0.50111782  0.51827089  0.50005125    -1.42500
C212        C  0.43002756  0.08349572  0.94663483     1.09000
C213        C  0.08287512  0.42526867  0.94849942     1.09100
C214        C  0.43523548  0.43122043  0.93554671     1.09100
C215        C  0.06919028  0.07284272  0.93347474     1.09000
O216        O  0.31888102  0.28085976  0.80700670    -0.80600
O217        O  0.19080257  0.22626548  0.81764007    -0.80600
O218        O  0.21026869  0.33186085  0.79683558    -0.80600
O219        O  0.28532875  0.15847818  0.80252624    -0.80600
O220        O  0.14796823  0.30041004  0.77473969    -0.80700
O221        O  0.34094804  0.19782560  0.77451515    -0.80600
O222        O  0.19927146  0.15574243  0.78730865    -0.80600
O223        O  0.29184134  0.34980229  0.78922408    -0.80600
C224        C  0.31810009  0.32584238  0.81364163     1.09100
C225        C  0.18427576  0.18118977  0.81827906     1.09000
C226        C  0.16934264  0.32885492  0.80067333     1.09100
C227        C  0.32424253  0.17007658  0.80463921     1.09000
O228        O  0.31166741  0.22453392  0.68223754    -0.80600
O229        O  0.18813184  0.28570667  0.69285792    -0.80700
O230        O  0.29913021  0.32926334  0.70406417    -0.80600
O231        O  0.21270498  0.16793364  0.69370105    -0.80600
O232        O  0.15832903  0.20596578  0.72515911    -0.80600
O233        O  0.35957757  0.29029931  0.72551517    -0.80600
O234        O  0.29885020  0.15236077  0.70990113    -0.80600
O235        O  0.21735528  0.35267544  0.70902479    -0.80600
Co236      Co  0.31066261  0.25462523  0.74357701     1.51500
Co237      Co  0.19338663  0.25823609  0.75629252     1.51700
Co238      Co  0.25365452  0.31166679  0.74994223     1.51600
Co239      Co  0.24913805  0.16325418  0.74829277     1.51500
O240        O  0.25177967  0.23575694  0.75071482    -1.42500
C241        C  0.31709348  0.17908095  0.68136963     1.09000
C242        C  0.19066806  0.33054506  0.68537213     1.09100
C243        C  0.33999313  0.32257046  0.70052206     1.09100
C244        C  0.17321306  0.17828635  0.69462729     1.09000
C245        C  0.16323289  0.15234198  0.61576335    -0.06200
C246        C  0.14611424  0.15513819  0.65956782    -0.00300
C247        C  0.10928587  0.12826969  0.67012682    -0.08900
C248        C  0.09083794  0.09952073  0.63612439    -0.06300
C249        C  0.10795167  0.09676866  0.59230857    -0.00300
C250        C  0.14481935  0.12356618  0.58178913    -0.08800
C251        C  0.16388838  0.12304014  0.53477695     0.61600
H252        H  0.19186539  0.17268851  0.60855624     0.12300
H253        H  0.06215555  0.07924473  0.64328116     0.12300
C254        C  0.09026639  0.12876096  0.71716398     0.61800
F255        F  0.19934553  0.15254934  0.53182074    -0.23300
F256        F  0.13369337  0.13935624  0.50249712    -0.20700
F257        F  0.17666485  0.07645468  0.52491362    -0.20300
F258        F  0.07725729  0.17528277  0.72696153    -0.20400
F259        F  0.12058593  0.11272236  0.74943376    -0.20700
F260        F  0.05497390  0.09900973  0.72022384    -0.23400
C261        C  0.09568048  0.14950772  0.90075488    -0.06200
C262        C  0.09786760  0.09842325  0.90124555    -0.00300
C263        C  0.13017331  0.07561216  0.87618659    -0.08900
C264        C  0.15881798  0.10476174  0.85226177    -0.06300
C265        C  0.15631366  0.15580651  0.85134267    -0.00300
C266        C  0.12447532  0.17865245  0.87698860    -0.08800
C267        C  0.11891950  0.23309820  0.87789505     0.61600
H268        H  0.07080163  0.16701290  0.91957433     0.12300
H269        H  0.18378665  0.08728856  0.83354649     0.12300
C270        C  0.13626142  0.02119732  0.87585468     0.61800
F271        F  0.08753502  0.24735272  0.90738409    -0.23300
F272        F  0.10673063  0.24949805  0.83476368    -0.20700
F273        F  0.15684547  0.25432461  0.89194659    -0.20300
F274        F  0.09891325  0.99958976  0.86068429    -0.20400
F275        F  0.14738917  0.00507995  0.91938828    -0.20700
F276        F  0.16863176  0.00703643  0.84753031    -0.23400
C277        C  0.14407964  0.32836752  0.61635647    -0.06200
C278        C  0.16082563  0.35560740  0.65227577    -0.00300
C279        C  0.14482312  0.40333796  0.65860671    -0.08900
C280        C  0.11204141  0.42131781  0.62898672    -0.06300
C281        C  0.09510148  0.39406362  0.59319390    -0.00300
C282        C  0.11189844  0.34679824  0.58609274    -0.08800
C283        C  0.09755402  0.31611799  0.54622757     0.61600
H284        H  0.15662768  0.29210838  0.61216877     0.12300
H285        H  0.09936907  0.45747179  0.63343000     0.12300
C286        C  0.16098689  0.43530155  0.69679420     0.61800
F287        F  0.12025120  0.27280524  0.54498254    -0.23300
F288        F  0.08828699  0.32948325  0.01545501    -0.20700
F289        F  0.05460816  0.30517812  0.54954983    -0.20300
F290        F  0.20409501  0.44450835  0.69174860    -0.20400
F291        F  0.15479352  0.41265238  0.73847709    -0.20700
F292        F  0.13962717  0.47952678  0.69684909    -0.23400
C293        C  0.37227391  0.11572327  0.67109936    -0.06200
C294        C  0.34819996  0.15501248  0.65158327    -0.00300
C295        C  0.35238659  0.16680426  0.60493327    -0.08900
C296        C  0.38094221  0.13903272  0.57957780    -0.06300
C297        C  0.40517108  0.09988404  0.59917977    -0.00300
C298        C  0.40061255  0.08778248  0.64570434    -0.08800
C299        C  0.42628686  0.04660112  0.66865434     0.61600
H300        H  0.36871889  0.10696668  0.70697402     0.12300
H301        H  0.38455099  0.14779151  0.54370885     0.12300
C302        C  0.32602968  0.20736665  0.58183598     0.61800
F303        F  0.46893554  0.12257102  0.20678484    -0.23300
F304        F  0.49401011  0.12494290  0.13597273    -0.20700
F305        F  0.47119561  0.05454400  0.16667379    -0.20300
F306        F  0.33762506  0.25128019  0.59985004    -0.20400
F307        F  0.28287126  0.19977724  0.58859446    -0.20700
F308        F  0.33219005  0.20995357  0.53533714    -0.23400
C309        C  0.34204515  0.40117267  0.85200675    -0.06200
C310        C  0.34798956  0.35094798  0.84653928    -0.00300
C311        C  0.38407269  0.32816464  0.86904761    -0.08900
C312        C  0.41162655  0.35614811  0.89659768    -0.06300
C313        C  0.40560329  0.40634071  0.90221130    -0.00300
C314        C  0.36982428  0.42921890  0.87929045    -0.08800
C315        C  0.36051949  0.48294356  0.88333481     0.61600
H316        H  0.31525161  0.41889400  0.83414960     0.12300
H317        H  0.43830182  0.33835764  0.91458178     0.12300
C318        C  0.39413720  0.27466712  0.86413761     0.61800
F319        F  0.32491250  0.49797525  0.85738522    -0.23300
F320        F  0.39519854  0.50885969  0.86823875    -0.20700
F321        F  0.35280944  0.49346629  0.92821475    -0.20300
F322        F  0.40089979  0.26488148  0.81890017    -0.20400
F323        F  0.36035239  0.24774931  0.87994202    -0.20700
F324        F  0.43062011  0.26007349  0.88887078    -0.23400
C325        C  0.36128380  0.11647207  0.91879361    -0.06200
C326        C  0.40354703  0.10434821  0.90926104    -0.00300
C327        C  0.41978732  0.11347724  0.86505942    -0.08900
C328        C  0.39268608  0.13596448  0.83223355    -0.06300
C329        C  0.35049159  0.14840751  0.84184411    -0.00300
C330        C  0.33406772  0.13861188  0.88586870    -0.08800
C331        C  0.28857589  0.15182927  0.89902980     0.61600
H332        H  0.34984740  0.10885420  0.95270161     0.12300
H333        H  0.40416424  0.14355831  0.79833810     0.12300
C334        C  0.46489469  0.09900158  0.85156519     0.61800
F335        F  0.28301264  0.14678397  0.94551891    -0.23300
F336        F  0.25970132  0.12162045  0.87770373    -0.20700
F337        F  0.27924829  0.19950464  0.88673085    -0.20300
F338        F  0.47381322  0.05156548  0.86507411    -0.20400
F339        F  0.49446909  0.12934027  0.87157417    -0.20700
F340        F  0.46976639  0.10240063  0.80483922    -0.23400
C341        C  0.10338973  0.35655396  0.83829864    -0.06200
C342        C  0.14827507  0.35572446  0.83803273    -0.00300
C343        C  0.17139618  0.37784260  0.87472119    -0.08900
C344        C  0.14840743  0.39770130  0.91046094    -0.06300
C345        C  0.10354882  0.39857886  0.91077178    -0.00300
C346        C  0.08036155  0.37692092  0.87386636    -0.08800
C347        C  0.03162132  0.37449456  0.87097405     0.61600
H348        H  0.08618738  0.34047701  0.81009098     0.12300
H349        H  0.16567293  0.41358475  0.93872868     0.12300
C350        C  0.22006188  0.38167959  0.87705003     0.61800
F351        F  0.01683554  0.35135342  0.83234861    -0.23300
F352        F  0.01422147  0.42077167  0.86947198    -0.20700
F353        F  0.01692687  0.34864442  0.90818310    -0.20300
F354        F  0.23365543  0.40721496  0.83915527    -0.20400
F355        F  0.23855919  0.33592531  0.87929376    -0.20700
F356        F  0.23472471  0.40612174  0.91497138    -0.23400
C357        C  0.33628231  0.38773815  0.64130351    -0.06200
C358        C  0.36124359  0.35102202  0.66395189    -0.00300
C359        C  0.40288205  0.34093223  0.64841496    -0.08900
C360        C  0.41701179  0.36693072  0.61011050    -0.06300
C361        C  0.39195514  0.40347044  0.58727727    -0.00300
C362        C  0.35056644  0.41407477  0.60328325    -0.08800
C363        C  0.32133979  0.45294363  0.58124727     0.61600
H364        H  0.30470423  0.39595956  0.65357346     0.12300
H365        H  0.44857639  0.35864991  0.59783459     0.12300
C366        C  0.43266514  0.30325861  0.67151171     0.61800
F367        F  0.27431118  0.41217711  0.06705629    -0.23300
F368        F  0.32381614  0.41020955  0.01357740    -0.20700
F369        F  0.31962811  0.47381435  0.06053111    -0.20300
F370        F  0.41477271  0.25780300  0.66858276    -0.20400
F371        F  0.43959240  0.31456698  0.71676131    -0.20700
F372        F  0.47232038  0.30134277  0.65152951    -0.23400
O373        O  0.39578206  0.96303138  0.02527461    -0.80600
O374        O  0.09568617  0.54768840  0.02532192    -0.80600
O375        O  0.03577581  0.89968619  0.04025496    -0.80600
O376        O  0.45487242  0.60215037  0.04518756    -0.80600
O377        O  0.06486653  0.96642861  0.05695272    -0.80700
O378        O  0.44134611  0.52866426  0.06973308    -0.80600
O379        O  0.04188210  0.58481769  0.05880477    -0.80600
O380        O  0.45642377  0.92438889  0.04650800    -0.80600
C381        C  0.41565768  0.93151508  0.05084024     1.09100
C382        C  0.08135997  0.57474330  0.05669766     1.09000
C383        C  0.06246053  0.92153678  0.06405748     1.09100
C384        C  0.43700033  0.57407684  0.07288573     1.09000
O385        O  0.41220656  0.55641479  0.47665684    -0.80600
O386        O  0.10462712  0.95190132  0.47619985    -0.80700
O387        O  0.46139675  0.90551991  0.46150006    -0.80600
O388        O  0.05662204  0.59726632  0.46547088    -0.80600
O389        O  0.06449005  0.52783522  0.43282459    -0.80600
O390        O  0.43461514  0.97460390  0.44400282    -0.80600
O391        O  0.46779034  0.59658239  0.44944668    -0.80600
O392        O  0.04206593  0.92225260  0.45248850    -0.80600
Co393      Co  0.44442116  0.99864980  0.00687459     1.51500
Co394      Co  0.06102222  0.49383046  0.49299940     1.51700
Co395      Co  0.50117655  0.94184035  0.99945756     1.51600
Co396      Co  0.50402520  0.59084359  0.50368357     1.51500
O397        O  0.50304266  0.01791431  0.99922242    -1.42500
C398        C  0.42903216  0.58435612  0.44676900     1.09000
C399        C  0.08307364  0.92471083  0.44924941     1.09100
C400        C  0.43531504  0.92968712  0.43705840     1.09100
C401        C  0.07195516  0.57263822  0.43406874     1.09000
O402        O  0.31842415  0.78102495  0.30702006    -0.80600
O403        O  0.19276068  0.72636980  0.31779357    -0.80600
O404        O  0.21170739  0.83174191  0.29866855    -0.80600
O405        O  0.28570735  0.65850069  0.30060095    -0.80600
O406        O  0.14918266  0.80060416  0.27653358    -0.80700
O407        O  0.34137251  0.69840756  0.27359172    -0.80600
O408        O  0.19973662  0.65622721  0.28644889    -0.80600
O409        O  0.29206501  0.85031532  0.28940158    -0.80600
C410        C  0.31785621  0.82595712  0.31402465     1.09100
C411        C  0.18572813  0.68146272  0.31811911     1.09000
C412        C  0.17081405  0.82837573  0.30287507     1.09100
C413        C  0.32447980  0.67039584  0.30333720     1.09000
O414        O  0.31359157  0.72591695  0.18159625    -0.80600
O415        O  0.18763655  0.78699409  0.19378681    -0.80700
O416        O  0.29988185  0.83138913  0.20497687    -0.80600
O417        O  0.21224581  0.66919696  0.19254265    -0.80600
O418        O  0.15834523  0.70677017  0.22538761    -0.80600
O419        O  0.36011914  0.79181435  0.22619006    -0.80600
O420        O  0.29857990  0.65318953  0.20735695    -0.80600
O421        O  0.21658067  0.85399337  0.21019830    -0.80600
Co422      Co  0.31125289  0.75545523  0.24316956     1.51500
Co423      Co  0.19407161  0.75876767  0.25662203     1.51700
Co424      Co  0.25381837  0.81258458  0.24992344     1.51600
Co425      Co  0.24925090  0.66393809  0.24666003     1.51500
O426        O  0.25217334  0.73650118  0.24914113    -1.42500
C427        C  0.31716078  0.68027111  0.17937419     1.09000
C428        C  0.18946921  0.83197671  0.18697539     1.09100
C429        C  0.34079778  0.82468099  0.20164394     1.09100
C430        C  0.17279858  0.67936636  0.19433693     1.09000
C431        C  0.15943112  0.65893190  0.11447959    -0.06200
C432        C  0.14534480  0.65625039  0.15961639    -0.00300
C433        C  0.11291081  0.62321718  0.17116388    -0.08900
C434        C  0.09497485  0.59476199  0.13661374    -0.06300
C435        C  0.10902088  0.59749429  0.09147382    -0.00300
C436        C  0.14196227  0.62993152  0.08007256    -0.08800
C437        C  0.15776948  0.63486402  0.03179005     0.61600
H438        H  0.18511077  0.68361932  0.10661977     0.12300
H439        H  0.06920415  0.57017350  0.14445935     0.12300
C440        C  0.09855405  0.61657228  0.21985281     0.61800
F441        F  0.19013409  0.66853576  0.02825592    -0.23300
F442        F  0.12436335  0.64967528  0.00271021    -0.20700
F443        F  0.17369356  0.59079068  0.01810263    -0.20300
F444        F  0.08297860  0.65997981  0.23550122    -0.20400
F445        F  0.13286551  0.60093064  0.24733842    -0.20700
F446        F  0.06642208  0.58261096  0.22342316    -0.23400
C447        C  0.09744055  0.64929167  0.40066738    -0.06200
C448        C  0.10104894  0.59837026  0.40249184    -0.00300
C449        C  0.13503173  0.57601431  0.37952416    -0.08900
C450        C  0.16260559  0.60533169  0.35440198    -0.06300
C451        C  0.15851118  0.65618060  0.35188781    -0.00300
C452        C  0.12592778  0.67872250  0.37680617    -0.08800
C453        C  0.11944003  0.73305802  0.37716790     0.61600
H454        H  0.07174036  0.66639735  0.41858873     0.12300
H455        H  0.18797158  0.58819480  0.33600448     0.12300
C456        C  0.14392829  0.52208658  0.38270632     0.61800
F457        F  0.08775892  0.74692590  0.40647044    -0.23300
F458        F  0.10714564  0.74904265  0.33393004    -0.20700
F459        F  0.15697175  0.75498841  0.39127825    -0.20300
F460        F  0.10886782  0.49739831  0.36588192    -0.20400
F461        F  0.15263879  0.50908649  0.42767070    -0.20700
F462        F  0.17904276  0.50844777  0.35795912    -0.23400
C463        C  0.13862100  0.82881153  0.12162500    -0.06200
C464        C  0.15847356  0.85704494  0.15506252    -0.00300
C465        C  0.14429610  0.90567982  0.16043697    -0.08900
C466        C  0.11183630  0.92435696  0.13073435    -0.06300
C467        C  0.09233231  0.89625572  0.09698499    -0.00300
C468        C  0.10550951  0.84714951  0.09259947    -0.08800
C469        C  0.08581908  0.81393358  0.05725385     0.61600
H470        H  0.14925850  0.79164594  0.11854612     0.12300
H471        H  0.10129426  0.96157990  0.13366319     0.12300
C472        C  0.16176616  0.93777479  0.19791547     0.61800
F473        F  0.10416744  0.76801198  0.05938485    -0.23300
F474        F  0.08871402  0.83095054  0.51464352    -0.20700
F475        F  0.04247640  0.80888281  0.06458801    -0.20300
F476        F  0.20496352  0.94573975  0.19208850    -0.20400
F477        F  0.15569338  0.91587806  0.24001614    -0.20700
F478        F  0.14131648  0.98255690  0.19775407    -0.23400
C479        C  0.39103475  0.65608191  0.16155080    -0.06200
C480        C  0.34731585  0.65633173  0.14877008    -0.00300
C481        C  0.33275898  0.62516975  0.11411423    -0.08900
C482        C  0.36288094  0.59607498  0.09202170    -0.06300
C483        C  0.40671430  0.59650136  0.10430016    -0.00300
C484        C  0.42112287  0.62686370  0.13960271    -0.08800
C485        C  0.46810731  0.62750162  0.15432959     0.61600
H486        H  0.40124635  0.67799156  0.18983600     0.12300
H487        H  0.35258411  0.57362962  0.06412001     0.12300
C488        C  0.28555066  0.62321969  0.10045413     0.61800
F489        F  0.46812525  0.62609527  0.70543267    -0.23300
F490        F  0.49170329  0.63127629  0.63402003    -0.20700
F491        F  0.47222817  0.55914006  0.66400682    -0.20300
F492        F  0.27039326  0.66947744  0.08989862    -0.20400
F493        F  0.26259418  0.60394728  0.13602958    -0.20700
F494        F  0.27846345  0.59484997  0.06281091    -0.23400
C495        C  0.34387062  0.90137454  0.35067509    -0.06200
C496        C  0.34758083  0.85061896  0.34743654    -0.00300
C497        C  0.38133856  0.82664794  0.37286529    -0.08900
C498        C  0.40921508  0.85416311  0.40054491    -0.06300
C499        C  0.40550818  0.90492665  0.40377436    -0.00300
C500        C  0.37182116  0.92891139  0.37822112    -0.08800
C501        C  0.36493179  0.98331833  0.37963060     0.61600
H502        H  0.31870583  0.91990981  0.33084111     0.12300
H503        H  0.43438583  0.83563584  0.42037391     0.12300
C504        C  0.38851529  0.77232224  0.37094582     0.61800
F505        F  0.33146248  0.99933019  0.35102188    -0.23300
F506        F  0.40161003  0.00632949  0.36580882    -0.20700
F507        F  0.35536228  0.99641484  0.42340163    -0.20300
F508        F  0.39800842  0.75979917  0.32699498    -0.20400
F509        F  0.35202647  0.74884231  0.38468402    -0.20700
F510        F  0.42218698  0.75629855  0.39926453    -0.23400
C511        C  0.36032258  0.61635778  0.41781989    -0.06200
C512        C  0.40300089  0.60541191  0.40910247    -0.00300
C513        C  0.41984362  0.61535256  0.36531328    -0.08900
C514        C  0.39302198  0.63785025  0.33225261    -0.06300
C515        C  0.35034946  0.64890986  0.34096904    -0.00300
C516        C  0.33319145  0.63780536  0.38444553    -0.08800
C517        C  0.28681473  0.64809442  0.39643175     0.61600
H518        H  0.34836685  0.60796030  0.45135384     0.12300
H519        H  0.40505667  0.64627410  0.29875391     0.12300
C520        C  0.46520135  0.60137984  0.35234376     0.61800
F521        F  0.28008553  0.64151472  0.44258876    -0.23300
F522        F  0.26015247  0.61669219  0.37358588    -0.20700
F523        F  0.27555047  0.69542557  0.38477848    -0.20300
F524        F  0.47394316  0.55367791  0.36504946    -0.20400
F525        F  0.49439901  0.63131335  0.37347763    -0.20700
F526        F  0.47082607  0.60586036  0.30578819    -0.23400
C527        C  0.10539546  0.86173553  0.33680971    -0.06200
C528        C  0.14980089  0.85441261  0.34058639    -0.00300
C529        C  0.17211697  0.87000821  0.38079986    -0.08900
C530        C  0.14860291  0.89134873  0.41543409    -0.06300
C531        C  0.10418678  0.89863526  0.41165897    -0.00300
C532        C  0.08196454  0.88376144  0.37109890    -0.08800
C533        C  0.03395344  0.89138789  0.36251071     0.61600
H534        H  0.08896020  0.84999020  0.30615608     0.12300
H535        H  0.16503940  0.90310489  0.44608147     0.12300
C536        C  0.22044478  0.86477338  0.38819191     0.61800
F537        F  0.02068539  0.87744037  0.31939824    -0.23300
F538        F  0.02340210  0.93988482  0.36608348    -0.20700
F539        F  0.01155563  0.86391181  0.39354764    -0.20300
F540        F  0.24084523  0.89289571  0.35608139    -0.20400
F541        F  0.23284799  0.81678682  0.38496212    -0.20700
F542        F  0.23415488  0.88013749  0.43068976    -0.23400
C543        C  0.33665733  0.88691145  0.13951031    -0.06200
C544        C  0.36250876  0.85357324  0.16557604    -0.00300
C545        C  0.40606452  0.84760432  0.15434745    -0.08900
C546        C  0.42095533  0.87281072  0.11591045    -0.06300
C547        C  0.39476444  0.90512219  0.08905643    -0.00300
C548        C  0.35182920  0.91312004  0.10181280    -0.08800
C549        C  0.32178292  0.94913505  0.07668586     0.61600
H550        H  0.30370213  0.89245681  0.14865539     0.12300
H551        H  0.45391034  0.86720286  0.10676860     0.12300
C552        C  0.43719585  0.81532385  0.18230832     0.61800
F553        F  0.27777722  0.94307237  0.59058460    -0.23300
F554        F  0.31618257  0.93249774  0.52850655    -0.20700
F555        F  0.33285640  0.99194105  0.57759694    -0.20300
F556        F  0.42517458  0.76750869  0.17909620    -0.20400
F557        F  0.43754698  0.82879796  0.22741245    -0.20700
F558        F  0.47879348  0.81877069  0.16737894    -0.23400
O559        O  0.39435070  0.96498041  0.52599940    -0.80600
O560        O  0.09692413  0.54426159  0.52584304    -0.80600
O561        O  0.03591152  0.90033385  0.54014611    -0.80600
O562        O  0.45411285  0.60165736  0.54247214    -0.80600
O563        O  0.06418589  0.96702574  0.55790559    -0.80700
O564        O  0.44092621  0.52879666  0.56873400    -0.80600
O565        O  0.04281590  0.58108975  0.55892320    -0.80600
O566        O  0.45486053  0.92587485  0.54683476    -0.80600
C567        C  0.41411761  0.93283996  0.55103805     1.09100
C568        C  0.08230918  0.57100369  0.55723647     1.09000
C569        C  0.06248583  0.92196307  0.56430138     1.09100
C570        C  0.43589315  0.57425446  0.57046140     1.09000
O571        O  0.41183254  0.55817876  0.97839774    -0.80600
O572        O  0.10379297  0.95203309  0.97421410    -0.80700
O573        O  0.46250625  0.90385093  0.96056273    -0.80600
O574        O  0.05397369  0.59866350  0.96488507    -0.80600
O575        O  0.06077820  0.52873228  0.93312725    -0.80600
O576        O  0.43565979  0.97298528  0.94323799    -0.80600
O577        O  0.46696863  0.59943380  0.95172638    -0.80600
O578        O  0.04107436  0.92163456  0.95195438    -0.80600
Co579      Co  0.44314831  0.00067071  0.50748891     1.51500
Co580      Co  0.05992835  0.49577585  0.99408967     1.51700
Co581      Co  0.49991620  0.94356675  0.50052838     1.51600
Co582      Co  0.50395900  0.59280225  0.00509457     1.51500
O583        O  0.50202941  0.01950162  0.50015347    -1.42500
C584        C  0.42844399  0.58657884  0.94875976     1.09000
C585        C  0.08200453  0.92451338  0.94775596     1.09100
C586        C  0.43626412  0.92804116  0.93633018     1.09100
C587        C  0.06776592  0.57369883  0.93293792     1.09000
O588        O  0.31983729  0.77900746  0.80618746    -0.80600
O589        O  0.19034320  0.72545070  0.81662199    -0.80600
O590        O  0.21058090  0.83130730  0.79687768    -0.80600
O591        O  0.28575985  0.65675472  0.80077565    -0.80600
O592        O  0.14832642  0.80016881  0.77412488    -0.80700
O593        O  0.34115364  0.69641006  0.77273164    -0.80600
O594        O  0.19969398  0.65480642  0.78670162    -0.80600
O595        O  0.29215078  0.84805233  0.78999411    -0.80600
C596        C  0.31873180  0.82379416  0.81376196     1.09100
C597        C  0.18357111  0.68044998  0.81698139     1.09000
C598        C  0.16962177  0.82827631  0.80047856     1.09100
C599        C  0.32447601  0.66898604  0.80313123     1.09000
O600        O  0.31134663  0.72425402  0.68080306    -0.80600
O601        O  0.18846475  0.78505784  0.69213379    -0.80700
O602        O  0.29948731  0.82933992  0.70454664    -0.80600
O603        O  0.21229966  0.66732478  0.69275035    -0.80600
O604        O  0.15796479  0.70509966  0.72459002    -0.80600
O605        O  0.35975420  0.78915791  0.72426719    -0.80600
O606        O  0.29874023  0.65141343  0.70755540    -0.80600
O607        O  0.21764549  0.85171949  0.70905618    -0.80600
Co608      Co  0.31086054  0.75357950  0.74248960     1.51500
Co609      Co  0.19338081  0.75739301  0.75544355     1.51700
Co610      Co  0.25394244  0.81070038  0.75004383     1.51600
Co611      Co  0.24925165  0.66217128  0.74693542     1.51500
O612        O  0.25195710  0.73473953  0.75014958    -1.42500
C613        C  0.31635961  0.67879354  0.67906874     1.09000
C614        C  0.19085563  0.82999852  0.68514384     1.09100
C615        C  0.34020186  0.82221913  0.70019570     1.09100
C616        C  0.17276115  0.67714788  0.69423501     1.09000
C617        C  0.16020994  0.65519367  0.61482667    -0.06200
C618        C  0.14562404  0.65334764  0.65974677    -0.00300
C619        C  0.11291882  0.62069771  0.67142130    -0.08900
C620        C  0.09513315  0.59186025  0.63709019    -0.06300
C621        C  0.10972034  0.59378818  0.59213638    -0.00300
C622        C  0.14307749  0.62565544  0.58073683    -0.08800
C623        C  0.15960452  0.62962597  0.53270476     0.61600
H624        H  0.18603033  0.67965491  0.60689908     0.12300
H625        H  0.06911587  0.56763091  0.64494467     0.12300
C626        C  0.09826407  0.61469343  0.72004035     0.61800
F627        F  0.19241479  0.66273269  0.52924901    -0.23300
F628        F  0.12675844  0.64462044  0.50303090    -0.20700
F629        F  0.17519229  0.58511005  0.51978146    -0.20300
F630        F  0.08285244  0.65836628  0.73525403    -0.20400
F631        F  0.13241587  0.59908641  0.74770146    -0.20700
F632        F  0.06596215  0.58096114  0.72379856    -0.23400
C633        C  0.09410812  0.65019791  0.89948137    -0.06200
C634        C  0.09516546  0.59912491  0.89930499    -0.00300
C635        C  0.12526845  0.57588906  0.87176907    -0.08900
C636        C  0.15476296  0.60442343  0.84846218    -0.06300
C637        C  0.15404646  0.65547582  0.84884886    -0.00300
C638        C  0.12267113  0.67887232  0.87483874    -0.08800
C639        C  0.11744739  0.73338980  0.87550953     0.61600
H640        H  0.07038904  0.66803335  0.91960297     0.12300
H641        H  0.17906647  0.58633137  0.82931285     0.12300
C642        C  0.12861047  0.52144088  0.86853719     0.61800
F643        F  0.08581416  0.74806621  0.90452384    -0.23300
F644        F  0.10573146  0.74981444  0.83223721    -0.20700
F645        F  0.15536223  0.75429636  0.88994775    -0.20300
F646        F  0.08924229  0.50246479  0.85614568    -0.20400
F647        F  0.14260140  0.50290497  0.91030220    -0.20700
F648        F  0.15762165  0.50709558  0.83649641    -0.23400
C649        C  0.13792236  0.82729046  0.62122901    -0.06200
C650        C  0.16038200  0.85563785  0.65276781    -0.00300
C651        C  0.14929600  0.90556402  0.65599686    -0.08900
C652        C  0.11596730  0.92465428  0.62759223    -0.06300
C653        C  0.09339597  0.89629458  0.59617620    -0.00300
C654        C  0.10473464  0.84645503  0.59263408    -0.08800
C655        C  0.08310522  0.81326165  0.55850784     0.61600
H656        H  0.14658378  0.78936794  0.61926081     0.12300
H657        H  0.10728215  0.96256057  0.62962717     0.12300
C658        C  0.17138602  0.93897185  0.68958580     0.61800
F659        F  0.09999870  0.76665832  0.56107331    -0.23300
F660        F  0.09179436  0.83290504  0.01392456    -0.20700
F661        F  0.03982116  0.81021176  0.56700427    -0.20300
F662        F  0.21465053  0.94136291  0.68079486    -0.20400
F663        F  0.16582393  0.92197811  0.73368697    -0.20700
F664        F  0.15493617  0.98575217  0.68651187    -0.23400
C665        C  0.38854156  0.64546609  0.66643218    -0.06200
C666        C  0.34712460  0.65588619  0.64853157    -0.00300
C667        C  0.33402376  0.63613985  0.60651434    -0.08900
C668        C  0.36350786  0.60774517  0.58281362    -0.06300
C669        C  0.40491805  0.59722077  0.60078810    -0.00300
C670        C  0.41788808  0.61676845  0.64292027    -0.08800
C671        C  0.46298381  0.60825613  0.66200168     0.61600
H672        H  0.39762581  0.65978786  0.69935348     0.12300
H673        H  0.35449723  0.59363496  0.54978876     0.12300
C674        C  0.28874851  0.64433590  0.58771257     0.61800
F675        F  0.47494338  0.65492481  0.19265222    -0.23300
F676        F  0.49210858  0.64688376  0.11964093    -0.20700
F677        F  0.48222980  0.58072439  0.16438618    -0.20300
F678        F  0.27967710  0.69345448  0.58465956    -0.20400
F679        F  0.26013802  0.62226163  0.61648479    -0.20700
F680        F  0.28309684  0.62532246  0.54480890    -0.23400
C681        C  0.34254604  0.89850565  0.85322114    -0.06200
C682        C  0.34859599  0.84843785  0.84707921    -0.00300
C683        C  0.38454560  0.82540205  0.86964422    -0.08900
C684        C  0.41232376  0.85315520  0.89719437    -0.06300
C685        C  0.40628013  0.90324326  0.90327365    -0.00300
C686        C  0.37003333  0.92613062  0.88118067    -0.08800
C687        C  0.35972323  0.97938105  0.88698817     0.61600
H688        H  0.31587236  0.91646986  0.83538828     0.12300
H689        H  0.43911924  0.83526773  0.91489698     0.12300
C690        C  0.39395906  0.77176842  0.86515877     0.61800
F691        F  0.32289328  0.99408389  0.86293171    -0.23300
F692        F  0.39317445  0.00669928  0.87108050    -0.20700
F693        F  0.35346168  0.98837381  0.93248194    -0.20300
F694        F  0.40113630  0.76150643  0.82010891    -0.20400
F695        F  0.35953530  0.74576147  0.88065552    -0.20700
F696        F  0.42989185  0.75664658  0.89054972    -0.23400
C697        C  0.35993926  0.61836336  0.91891282    -0.06200
C698        C  0.40265202  0.60712331  0.91068310    -0.00300
C699        C  0.41999176  0.61678264  0.86702678    -0.08900
C700        C  0.39311194  0.63759298  0.83306593    -0.06300
C701        C  0.35038186  0.64878662  0.84128516    -0.00300
C702        C  0.33322342  0.63978796  0.88513282    -0.08800
C703        C  0.28758054  0.65355712  0.89737972     0.61600
H704        H  0.34777094  0.61077659  0.95251385     0.12300
H705        H  0.40525173  0.64508974  0.79943959     0.12300
C706        C  0.46617566  0.60491497  0.85534335     0.61800
F707        F  0.28171091  0.65051766  0.94396115    -0.23300
F708        F  0.25886320  0.62249653  0.87694309    -0.20700
F709        F  0.27829745  0.70073918  0.88328512    -0.20300
F710        F  0.47652035  0.55775318  0.86861217    -0.20400
F711        F  0.49359794  0.63649647  0.87699376    -0.20700
F712        F  0.47283865  0.60942699  0.80899678    -0.23400
C713        C  0.10369356  0.86007512  0.83543993    -0.06200
C714        C  0.14837772  0.85469820  0.83802465    -0.00300
C715        C  0.17094168  0.87208615  0.87742116    -0.08900
C716        C  0.14755428  0.89321314  0.91226374    -0.06300
C717        C  0.10290092  0.89848349  0.90977817    -0.00300
C718        C  0.08029794  0.88137756  0.87029404    -0.08800
C719        C  0.03178617  0.88509481  0.86384460     0.61600
H720        H  0.08697006  0.84696055  0.80550362     0.12300
H721        H  0.16431080  0.90624472  0.94220719     0.12300
C722        C  0.21948540  0.86907540  0.88376283     0.61800
F723        F  0.01763644  0.86795199  0.82215268    -0.23300
F724        F  0.01852579  0.93292142  0.86586065    -0.20700
F725        F  0.01253587  0.85756541  0.89724361    -0.20300
F726        F  0.23819956  0.89661824  0.85003955    -0.20400
F727        F  0.23329673  0.82140731  0.88216366    -0.20700
F728        F  0.23363484  0.88685412  0.92519493    -0.23400
C729        C  0.33476703  0.88328764  0.63709436    -0.06200
C730        C  0.36131810  0.85107936  0.66370439    -0.00300
C731        C  0.40510821  0.84653547  0.65297584    -0.08900
C732        C  0.41990935  0.87311196  0.61530400    -0.06300
C733        C  0.39324362  0.90494646  0.58837220    -0.00300
C734        C  0.34972896  0.91048386  0.59989876    -0.08800
C735        C  0.31882804  0.94481636  0.57388661     0.61600
H736        H  0.30144190  0.88726475  0.64545925     0.12300
H737        H  0.45321326  0.86901525  0.60689842     0.12300
C738        C  0.43657845  0.81438198  0.68070840     0.61800
F739        F  0.28144643  0.95043488  0.09517757    -0.23300
F740        F  0.31665431  0.93646528  0.03157707    -0.20700
F741        F  0.33839008  0.99524855  0.07921770    -0.20300
F742        F  0.42520945  0.76635066  0.67692268    -0.20400
F743        F  0.43661073  0.82726150  0.72596859    -0.20700
F744        F  0.47817999  0.81873781  0.66599020    -0.23400
O745        O  0.89387338  0.46273816  0.02596332    -0.80600
O746        O  0.59674534  0.04771931  0.02398099    -0.80600
O747        O  0.53663080  0.40267045  0.03881055    -0.80600
O748        O  0.95519483  0.10097042  0.04270149    -0.80600
O749        O  0.56526900  0.46935274  0.05655504    -0.80700
O750        O  0.94161549  0.02875096  0.06974225    -0.80600
O751        O  0.54265885  0.08520054  0.05659278    -0.80600
O752        O  0.95477166  0.42408500  0.04823474    -0.80600
C753        C  0.91389230  0.43097703  0.05128818     1.09100
C754        C  0.58214641  0.07500182  0.05496800     1.09000
C755        C  0.56330309  0.42429347  0.06285858     1.09100
C756        C  0.93647301  0.07422505  0.07077083     1.09000
O757        O  0.91301789  0.05780101  0.47593701    -0.80600
O758        O  0.60430194  0.45266575  0.47570515    -0.80700
O759        O  0.96200546  0.40368358  0.45868357    -0.80600
O760        O  0.55456045  0.09926154  0.46340823    -0.80600
O761        O  0.56238612  0.02883684  0.43272436    -0.80600
O762        O  0.93494441  0.47319193  0.44253108    -0.80600
O763        O  0.96927337  0.09662200  0.44875041    -0.80600
O764        O  0.54185999  0.42247166  0.45254359    -0.80600
Co765      Co  0.94267829  0.49893492  0.00815064     1.51500
Co766      Co  0.56028591  0.99693426  0.49407190     1.51700
Co767      Co  0.99991443  0.44187941  0.00189900     1.51600
Co768      Co  0.00537910  0.09077225  0.50290083     1.51500
O769        O  0.00175300  0.51790818  0.00172121    -1.42500
C770        C  0.93011068  0.08608795  0.44638797     1.09000
C771        C  0.58283080  0.42524253  0.44890113     1.09100
C772        C  0.93579086  0.42839999  0.43494192     1.09100
C773        C  0.56919110  0.07383626  0.43220215     1.09000
O774        O  0.81833078  0.28231375  0.30558327    -0.80600
O775        O  0.69096164  0.22648085  0.31615112    -0.80600
O776        O  0.71104546  0.33290758  0.29683971    -0.80600
O777        O  0.78496346  0.15905630  0.29998765    -0.80600
O778        O  0.64852058  0.30182631  0.27482514    -0.80700
O779        O  0.84053912  0.19934573  0.27314507    -0.80600
O780        O  0.69897103  0.15648589  0.28480554    -0.80600
O781        O  0.79154341  0.35140344  0.28762606    -0.80600
C782        C  0.81713746  0.32723386  0.31255866     1.09100
C783        C  0.68398651  0.18151207  0.31606878     1.09000
C784        C  0.67015892  0.32980485  0.30101590     1.09100
C785        C  0.82373871  0.17102154  0.30280264     1.09000
O786        O  0.81220334  0.22622232  0.18056362    -0.80600
O787        O  0.68754771  0.28764941  0.19218003    -0.80700
O788        O  0.79868847  0.33111963  0.20254443    -0.80600
O789        O  0.71235719  0.17015199  0.19128335    -0.80600
O790        O  0.65795481  0.20753063  0.22349341    -0.80600
O791        O  0.85955083  0.29210853  0.22426936    -0.80600
O792        O  0.79863983  0.15394840  0.20763195    -0.80600
O793        O  0.71681821  0.35436180  0.20864180    -0.80600
Co794      Co  0.81055762  0.25621775  0.24202979     1.51500
Co795      Co  0.69326764  0.25936623  0.25522343     1.51700
Co796      Co  0.75344040  0.31316871  0.24865838     1.51600
Co797      Co  0.74884213  0.16463670  0.24583526     1.51500
O798        O  0.75163191  0.23717881  0.24890542    -1.42500
C799        C  0.81748332  0.18073677  0.17967900     1.09000
C800        C  0.68997907  0.33254639  0.18502341     1.09100
C801        C  0.83952591  0.32417455  0.19931928     1.09100
C802        C  0.67282451  0.18024967  0.19259443     1.09000
C803        C  0.66132373  0.15766844  0.11301180    -0.06200
C804        C  0.64572201  0.15711136  0.15758962    -0.00300
C805        C  0.61155203  0.12625714  0.16871245    -0.08900
C806        C  0.59422077  0.09692332  0.13455306    -0.06300
C807        C  0.60953397  0.09782659  0.08988908    -0.00300
C808        C  0.64373013  0.12862048  0.07874367    -0.08800
C809        C  0.66075807  0.13185036  0.03085803     0.61600
H810        H  0.68816040  0.18084985  0.10545000     0.12300
H811        H  0.56767207  0.07336353  0.14221203     0.12300
C812        C  0.59424745  0.12326080  0.21647183     0.61800
F813        F  0.69411646  0.16429966  0.02755915    -0.23300
F814        F  0.62837916  0.14712527  0.00064615    -0.20700
F815        F  0.67583312  0.08693661  0.01844750    -0.20300
F816        F  0.57863866  0.16812301  0.22836494    -0.20400
F817        F  0.62656342  0.10864862  0.24699117    -0.20700
F818        F  0.56123562  0.09039050  0.21986061    -0.23400
C819        C  0.59550167  0.15012851  0.39884168    -0.06200
C820        C  0.59717215  0.09906675  0.39906941    -0.00300
C821        C  0.62816450  0.07595514  0.37249846    -0.08900
C822        C  0.65695659  0.10488218  0.34847404    -0.06300
C823        C  0.65550963  0.15599323  0.34856954    -0.00300
C824        C  0.62418050  0.17904626  0.37476252    -0.08800
C825        C  0.61903268  0.23353583  0.37611821     0.61600
H826        H  0.57109080  0.16783410  0.41814577     0.12300
H827        H  0.68119055  0.08716766  0.32893379     0.12300
C828        C  0.63262107  0.02141474  0.37046723     0.61800
F829        F  0.58784723  0.24784266  0.40581747    -0.23300
F830        F  0.60679533  0.25051524  0.33317986    -0.20700
F831        F  0.65714638  0.25422559  0.39027588    -0.20300
F832        F  0.59400981  0.00147244  0.35687007    -0.20400
F833        F  0.64538334  0.00363221  0.41297586    -0.20700
F834        F  0.66304620  0.00707664  0.33992510    -0.23400
C835        C  0.63788276  0.32962707  0.12060264    -0.06200
C836        C  0.65986257  0.35803852  0.15242140    -0.00300
C837        C  0.64888199  0.40798862  0.15545946    -0.08900
C838        C  0.61592844  0.42702927  0.12665626    -0.06300
C839        C  0.59382170  0.39862439  0.09494114    -0.00300
C840        C  0.60519019  0.34880684  0.09146187    -0.08800
C841        C  0.58419984  0.31569104  0.05683196     0.61600
H842        H  0.64658166  0.29170896  0.11879440     0.12300
H843        H  0.60719540  0.46492090  0.12859846     0.12300
C844        C  0.67068489  0.44148934  0.18919866     0.61800
F845        F  0.60128291  0.26916908  0.05944662    -0.23300
F846        F  0.59683017  0.33941025  0.51120927    -0.20700
F847        F  0.54079931  0.31234304  0.06459484    -0.20300
F848        F  0.71403217  0.44388558  0.18082236    -0.20400
F849        F  0.66475644  0.42459524  0.23326778    -0.20700
F850        F  0.65426211  0.48827517  0.18587054    -0.23400
C851        C  0.87523387  0.11995945  0.17200620    -0.06200
C852        C  0.84910754  0.15650622  0.15072275    -0.00300
C853        C  0.85082887  0.16417414  0.10318429    -0.08900
C854        C  0.87881086  0.13498215  0.07856202    -0.06300
C855        C  0.90495057  0.09846044  0.09983217    -0.00300
C856        C  0.90321703  0.09073954  0.14737074    -0.08800
C857        C  0.93130644  0.05272702  0.17192948     0.61600
H858        H  0.87336734  0.11427708  0.20854947     0.12300
H859        H  0.88066277  0.14067242  0.04201847     0.12300
C860        C  0.82278155  0.20218278  0.07860608     0.61800
F861        F  0.92251000  0.04762723  0.71544951    -0.23300
F862        F  0.97096467  0.05473920  0.66092759    -0.20700
F863        F  0.91443092  0.00524935  0.65175723    -0.20300
F864        F  0.83419902  0.24754184  0.09315891    -0.20400
F865        F  0.78015679  0.19421295  0.08785465    -0.20700
F866        F  0.82716258  0.20140522  0.03183359    -0.23400
C867        C  0.85200768  0.40236862  0.34004210    -0.06200
C868        C  0.84636239  0.35202656  0.34604576    -0.00300
C869        C  0.87028647  0.32755276  0.38153959    -0.08900
C870        C  0.89921060  0.35400430  0.40878090    -0.06300
C871        C  0.90540118  0.40416022  0.40229696    -0.00300
C872        C  0.88112807  0.42880603  0.36716028    -0.08800
C873        C  0.88582815  0.48265509  0.35790698     0.61600
H874        H  0.83371936  0.42116565  0.31307448     0.12300
H875        H  0.91731952  0.33523122  0.43589855     0.12300
C876        C  0.86574962  0.27372552  0.39080353     0.61800
F877        F  0.86321734  0.49834480  0.31900731    -0.23300
F878        F  0.92854145  0.49337400  0.35204915    -0.20700
F879        F  0.87025545  0.50769185  0.39419262    -0.20300
F880        F  0.88238939  0.24886152  0.35498746    -0.20400
F881        F  0.82297348  0.26266051  0.39559150    -0.20700
F882        F  0.88757830  0.25827830  0.43026749    -0.23400
C883        C  0.86015012  0.11426228  0.41631660    -0.06200
C884        C  0.90403261  0.10887409  0.40921695    -0.00300
C885        C  0.92161406  0.12507036  0.36722408    -0.08900
C886        C  0.89371201  0.14460427  0.33354665    -0.06300
C887        C  0.84985029  0.14966612  0.34053259    -0.00300
C888        C  0.83236176  0.13464207  0.38287839    -0.08800
C889        C  0.78494373  0.13940339  0.39363390     0.61600
H890        H  0.84764366  0.10213951  0.44862037     0.12300
H891        H  0.90610034  0.15644379  0.30110443     0.12300
C892        C  0.96924877  0.12252172  0.35703048     0.61800
F893        F  0.77736097  0.12904395  0.43907554    -0.23300
F894        F  0.76138239  0.10725913  0.36798205    -0.20700
F895        F  0.77038445  0.18614042  0.38437977    -0.20300
F896        F  0.98463184  0.07568622  0.36365925    -0.20400
F897        F  0.99157392  0.15355622  0.38503256    -0.20700
F898        F  0.97741213  0.13640058  0.31248940    -0.23400
C899        C  0.60455590  0.36034444  0.33696524    -0.06200
C900        C  0.64928469  0.35607891  0.33884262    -0.00300
C901        C  0.67210539  0.37451088  0.37764037    -0.08900
C902        C  0.64877488  0.39528169  0.41279701    -0.06300
C903        C  0.60398770  0.39926207  0.41102428    -0.00300
C904        C  0.58128578  0.38128608  0.37197897    -0.08800
C905        C  0.53271314  0.38334660  0.36630807     0.61600
H906        H  0.58765152  0.34662714  0.30740369     0.12300
H907        H  0.66564821  0.40910283  0.44232717     0.12300
C908        C  0.72079104  0.37286663  0.38307250     0.61800
F909        F  0.51826016  0.36481580  0.32529693    -0.23300
F910        F  0.51826620  0.43080703  0.36762432    -0.20700
F911        F  0.51500646  0.35583205  0.40065410    -0.20300
F912        F  0.73863259  0.40012519  0.34851941    -0.20400
F913        F  0.73543855  0.32547516  0.38213832    -0.20700
F914        F  0.73515372  0.39184690  0.42392245    -0.23400
C915        C  0.83813113  0.35371311  0.11988275    -0.06200
C916        C  0.86045920  0.35079932  0.16224285    -0.00300
C917        C  0.89916141  0.37598128  0.16839196    -0.08900
C918        C  0.91511036  0.40187977  0.13094591    -0.06300
C919        C  0.89283873  0.40468525  0.08852814    -0.00300
C920        C  0.85381086  0.38006219  0.08259005    -0.08800
C921        C  0.82983050  0.38002697  0.03691017     0.61600
H922        H  0.80795998  0.33484579  0.11617549     0.12300
H923        H  0.94529049  0.42072132  0.13466715     0.12300
C924        C  0.92217122  0.37753798  0.21456151     0.61800
F925        F  0.77553237  0.40842050  0.56491413    -0.23300
F926        F  0.82627840  0.40526193  0.51281432    -0.20700
F927        F  0.81954794  0.47104228  0.55669646    -0.20300
F928        F  0.93707887  0.33180863  0.22742081    -0.20400
F929        F  0.89418267  0.39386396  0.24666344    -0.20700
F930        F  0.95683866  0.40839989  0.21400787    -0.23400
O931        O  0.89505530  0.46270734  0.52435987    -0.80600
O932        O  0.59594118  0.04920102  0.52475980    -0.80600
O933        O  0.53575041  0.40046196  0.54040775    -0.80600
O934        O  0.95558903  0.10257238  0.54082030    -0.80600
O935        O  0.56407990  0.46741591  0.55779491    -0.80700
O936        O  0.94195442  0.03069804  0.56846928    -0.80600
O937        O  0.54203977  0.08714981  0.55735248    -0.80600
O938        O  0.95546905  0.42221133  0.54384879    -0.80600
C939        C  0.91483945  0.42986302  0.54856857     1.09100
C940        C  0.58152874  0.07711337  0.55538950     1.09000
C941        C  0.56215814  0.42243339  0.56453295     1.09100
C942        C  0.93684755  0.07619634  0.56916349     1.09000
O943        O  0.91243661  0.05611350  0.97733608    -0.80600
O944        O  0.60465999  0.45611787  0.97407962    -0.80700
O945        O  0.96144968  0.40392115  0.96290229    -0.80600
O946        O  0.55487845  0.09865218  0.96270536    -0.80600
O947        O  0.56333101  0.02836540  0.93180148    -0.80600
O948        O  0.93500113  0.47311282  0.94444349    -0.80600
O949        O  0.96806315  0.09612489  0.95020928    -0.80600
O950        O  0.54246608  0.42517331  0.95125702    -0.80600
Co951      Co  0.94399130  0.49810269  0.50632656     1.51500
Co952      Co  0.56135702  0.99569818  0.99282078     1.51700
Co953      Co  0.00087751  0.44044599  0.49801536     1.51600
Co954      Co  0.00461967  0.08998075  0.00408263     1.51500
O955        O  0.00285434  0.51653014  0.49881155    -1.42500
C956        C  0.92927572  0.08407902  0.94741763     1.09000
C957        C  0.58339887  0.42798860  0.94773789     1.09100
C958        C  0.93611970  0.42814198  0.93765001     1.09100
C959        C  0.56986197  0.07342300  0.93150298     1.09000
O960        O  0.82005813  0.28183464  0.80678660    -0.80600
O961        O  0.69153326  0.22701331  0.81637400    -0.80600
O962        O  0.71231810  0.33280318  0.79815218    -0.80600
O963        O  0.78555465  0.15861282  0.79982936    -0.80600
O964        O  0.64979187  0.30272683  0.77502794    -0.80700
O965        O  0.84166902  0.19866118  0.77390984    -0.80600
O966        O  0.69955439  0.15717812  0.78463660    -0.80600
O967        O  0.79315189  0.35112439  0.78919082    -0.80600
C968        C  0.81891960  0.32674650  0.81383013     1.09100
C969        C  0.68439920  0.18210654  0.81590413     1.09000
C970        C  0.67134033  0.33030508  0.80165887     1.09100
C971        C  0.82449761  0.16985659  0.80294776     1.09000
O972        O  0.81307900  0.22689002  0.68146040    -0.80600
O973        O  0.68950369  0.28871224  0.69279929    -0.80700
O974        O  0.80021671  0.33139059  0.70411654    -0.80600
O975        O  0.71313400  0.17141700  0.69091363    -0.80600
O976        O  0.65894697  0.20867314  0.72358434    -0.80600
O977        O  0.86069298  0.29183087  0.72506077    -0.80600
O978        O  0.79938218  0.15443153  0.70759708    -0.80600
O979        O  0.71725034  0.35584650  0.71057265    -0.80600
Co980      Co  0.81184794  0.25614027  0.74314968     1.51500
Co981      Co  0.69446888  0.26008934  0.75567278     1.51700
Co982      Co  0.75461326  0.31369954  0.74981050     1.51600
Co983      Co  0.74951873  0.16517322  0.74568262     1.51500
O984        O  0.75279429  0.23762557  0.74989416    -1.42500
C985        C  0.81845791  0.18150178  0.68009810     1.09000
C986        C  0.69061784  0.33383896  0.68671161     1.09100
C987        C  0.84093685  0.32395995  0.69995477     1.09100
C988        C  0.67361674  0.18134442  0.69263019     1.09000
C989        C  0.65737667  0.16436669  0.61241873    -0.06200
C990        C  0.64608758  0.15801674  0.65820775    -0.00300
C991        C  0.61630432  0.12197018  0.67009812    -0.08900
C992        C  0.59804216  0.09411519  0.63531492    -0.06300
C993        C  0.60925757  0.10049248  0.58955511    -0.00300
C994        C  0.63906709  0.13649433  0.57760527    -0.08800
C995        C  0.64994001  0.14691614  0.52831127     0.61600
H996        H  0.68110668  0.19135232  0.60424802     0.12300
H997        H  0.57435068  0.06708566  0.64349025     0.12300
C998        C  0.60548339  0.11130768  0.71934852     0.61800
F999        F  0.68052200  0.18261535  0.52436064    -0.23300
F1000       F  0.61345153  0.16249079  0.50430240    -0.20700
F1001       F  0.66580983  0.10546214  0.50901681    -0.20300
F1002       F  0.58952560  0.15261464  0.73882214    -0.20400
F1003       F  0.64202142  0.09568693  0.74321463    -0.20700
F1004       F  0.57499947  0.07549568  0.72320159    -0.23400
C1005       C  0.59467514  0.14991580  0.89698726    -0.06200
C1006       C  0.59773707  0.09892253  0.89839852    -0.00300
C1007       C  0.62992666  0.07624554  0.87302367    -0.08900
C1008       C  0.65845200  0.10551962  0.84906807    -0.06300
C1009       C  0.65571623  0.15651528  0.84808344    -0.00300
C1010       C  0.62298416  0.17917306  0.87268005    -0.08800
C1011       C  0.61596297  0.23346224  0.87184208     0.61600
H1012       H  0.56947508  0.16721779  0.91551220     0.12300
H1013       H  0.68357478  0.08818385  0.83048086     0.12300
C1014       C  0.63611250  0.02187191  0.87242953     0.61800
F1015       F  0.58289810  0.24755709  0.89929775    -0.23300
F1016       F  0.60523236  0.24830248  0.82782765    -0.20700
F1017       F  0.65270162  0.25623559  0.88714740    -0.20300
F1018       F  0.59848816  0.00013809  0.85824836    -0.20400
F1019       F  0.64832626  0.00579040  0.91565750    -0.20700
F1020       F  0.66777401  0.00787451  0.84315113    -0.23400
C1021       C  0.64133201  0.33134856  0.61993663    -0.06200
C1022       C  0.65930985  0.35887962  0.65501173    -0.00300
C1023       C  0.64299536  0.40640296  0.66199138    -0.08900
C1024       C  0.61016653  0.42467472  0.63245518    -0.06300
C1025       C  0.59247047  0.39724877  0.59715713    -0.00300
C1026       C  0.60808063  0.34934470  0.59085368    -0.08800
C1027       C  0.59101589  0.31723446  0.55320890     0.61600
H1028       H  0.65363167  0.29502713  0.61556377     0.12300
H1029       H  0.59792780  0.46105358  0.63667310     0.12300
C1030       C  0.65857295  0.43764712  0.70096817     0.61800
F1031       F  0.61189287  0.27272459  0.55320468    -0.23300
F1032       F  0.59036936  0.33366652  0.01316819    -0.20700
F1033       F  0.54790299  0.30866510  0.55904883    -0.20300
F1034       F  0.70151186  0.44795464  0.69635275    -0.20400
F1035       F  0.65264526  0.41370181  0.74206275    -0.20700
F1036       F  0.63639611  0.48131094  0.70208644    -0.23400
C1037       C  0.87432467  0.11876109  0.67081943    -0.06200
C1038       C  0.85014351  0.15773021  0.65085055    -0.00300
C1039       C  0.85415263  0.16885928  0.60407721    -0.08900
C1040       C  0.88195028  0.14009552  0.57876969    -0.06300
C1041       C  0.90586182  0.10083998  0.59865993    -0.00300
C1042       C  0.90211084  0.09000061  0.64552245    -0.08800
C1043       C  0.92776349  0.04900249  0.66877696     0.61600
H1044       H  0.87099493  0.11067606  0.70683026     0.12300
H1045       H  0.88523880  0.14817174  0.54275446     0.12300
C1046       C  0.82856021  0.20996877  0.58089681     0.61800
F1047       F  0.92672655  0.05330411  0.21868432    -0.23300
F1048       F  0.97393689  0.06097858  0.16290905    -0.20700
F1049       F  0.92017668  0.00732108  0.15717338    -0.20300
F1050       F  0.84121041  0.25359401  0.59876373    -0.20400
F1051       F  0.78526564  0.20364442  0.58783604    -0.20700
F1052       F  0.83462026  0.21216958  0.53436773    -0.23400
C1053       C  0.85717208  0.40074694  0.83862099    -0.06200
C1054       C  0.84858431  0.35134567  0.84696163    -0.00300
C1055       C  0.86976541  0.32751080  0.88467581    -0.08900
C1056       C  0.89885833  0.35375103  0.91201331    -0.06300
C1057       C  0.90701427  0.40333017  0.90405921    -0.00300
C1058       C  0.88584364  0.42713559  0.86631632    -0.08800
C1059       C  0.89350534  0.48002999  0.85485649     0.61600
H1060       H  0.84127689  0.41885788  0.80963351     0.12300
H1061       H  0.91507242  0.33548791  0.94071909     0.12300
C1062       C  0.86148678  0.27483151  0.89664544     0.61800
F1063       F  0.87445934  0.49441169  0.81353670    -0.23300
F1064       F  0.93703903  0.48807772  0.85222977    -0.20700
F1065       F  0.87636259  0.50812722  0.88822623    -0.20300
F1066       F  0.87816048  0.24604808  0.86351692    -0.20400
F1067       F  0.81785546  0.26745175  0.89948328    -0.20700
F1068       F  0.88047409  0.26064410  0.93805626    -0.23400
C1069       C  0.85961782  0.11168236  0.91637761    -0.06200
C1070       C  0.90330239  0.10500201  0.90934518    -0.00300
C1071       C  0.92099007  0.11857993  0.86668767    -0.08900
C1072       C  0.89378489  0.13984860  0.83318448    -0.06300
C1073       C  0.85016117  0.14707987  0.84040532    -0.00300
C1074       C  0.83225447  0.13218969  0.88263647    -0.08800
C1075       C  0.78482002  0.13737814  0.89302290     0.61600
H1076       H  0.84700487  0.10070000  0.94897063     0.12300
H1077       H  0.90648135  0.15096634  0.80066009     0.12300
C1078       C  0.96794817  0.11061915  0.85549028     0.61800
F1079       F  0.77662295  0.12598717  0.93812626    -0.23300
F1080       F  0.76117894  0.10615816  0.86644538    -0.20700
F1081       F  0.77095434  0.18451734  0.88460099    -0.20300
F1082       F  0.98031701  0.06332093  0.86592807    -0.20400
F1083       F  0.99334116  0.14213911  0.87985444    -0.20700
F1084       F  0.97535141  0.11899094  0.80968853    -0.23400
C1085       C  0.60531153  0.35836908  0.83847328    -0.06200
C1086       C  0.65017851  0.35710655  0.83895284    -0.00300
C1087       C  0.67299139  0.37894084  0.87602252    -0.08900
C1088       C  0.64958411  0.39997810  0.91091895    -0.06300
C1089       C  0.60470064  0.40118848  0.91047208    -0.00300
C1090       C  0.58193121  0.37908708  0.87351033    -0.08800
C1091       C  0.53325330  0.37603561  0.87024853     0.61600
H1092       H  0.58836189  0.34228397  0.81011186     0.12300
H1093       H  0.66650473  0.41614812  0.93925752     0.12300
C1094       C  0.72174642  0.38071960  0.87991142     0.61800
F1095       F  0.51890202  0.35205567  0.83192059    -0.23300
F1096       F  0.51528942  0.42205671  0.86797653    -0.20700
F1097       F  0.51881272  0.35049383  0.90772435    -0.20300
F1098       F  0.73740343  0.40618487  0.84295069    -0.20400
F1099       F  0.73866280  0.33421234  0.88198323    -0.20700
F1100       F  0.73609209  0.40383264  0.91872201    -0.23400
C1101       C  0.83412870  0.37299517  0.62854119    -0.06200
C1102       C  0.86172839  0.35062984  0.66202426    -0.00300
C1103       C  0.90658666  0.35388863  0.65716955    -0.08900
C1104       C  0.92177780  0.38003123  0.61947581    -0.06300
C1105       C  0.89416157  0.40258441  0.58614440    -0.00300
C1106       C  0.84932286  0.39880564  0.59067109    -0.08800
C1107       C  0.81734240  0.42108751  0.55593231     0.61600
H1108       H  0.79978403  0.36993589  0.63185436     0.12300
H1109       H  0.95611357  0.38320773  0.61614602     0.12300
C1110       C  0.93859925  0.33046292  0.69119789     0.61800
F1111       F  0.79492966  0.34950346  0.03749413    -0.23300
F1112       F  0.85691846  0.36446135  0.00366898    -0.20700
F1113       F  0.81504379  0.42623692  0.02566669    -0.20300
F1114       F  0.93499522  0.28062724  0.69032118    -0.20400
F1115       F  0.93094385  0.34644970  0.73455969    -0.20700
F1116       F  0.98055436  0.34165796  0.68134692    -0.23400
O1117       O  0.89329422  0.96365084  0.02648415    -0.80600
O1118       O  0.59533117  0.54989635  0.02535945    -0.80600
O1119       O  0.53826177  0.90035292  0.03909515    -0.80600
O1120       O  0.95531624  0.60099235  0.04370514    -0.80600
O1121       O  0.56723168  0.96729445  0.05582830    -0.80700
O1122       O  0.94107428  0.52844493  0.06978107    -0.80600
O1123       O  0.54138401  0.58642862  0.05889829    -0.80600
O1124       O  0.95405019  0.92400373  0.04736858    -0.80600
C1125       C  0.91331345  0.93144315  0.05126584     1.09100
C1126       C  0.58088298  0.57674685  0.05676053     1.09000
C1127       C  0.56511832  0.92229533  0.06268491     1.09100
C1128       C  0.93613204  0.57393235  0.07116069     1.09000
O1129       O  0.91454953  0.55602586  0.47619741    -0.80600
O1130       O  0.60520475  0.95445489  0.47505184    -0.80700
O1131       O  0.96123649  0.90494118  0.46098542    -0.80600
O1132       O  0.55406879  0.59872316  0.46457618    -0.80600
O1133       O  0.56302690  0.52835075  0.43378946    -0.80600
O1134       O  0.93356175  0.97402133  0.44380796    -0.80600
O1135       O  0.97047089  0.59657212  0.45023394    -0.80600
O1136       O  0.54276164  0.92298800  0.45312126    -0.80600
Co1137     Co  0.94235626  0.99895552  0.00814252     1.51500
Co1138     Co  0.55945861  0.49549058  0.49459526     1.51700
Co1139     Co  0.99907438  0.94145661  0.00067186     1.51600
Co1140     Co  0.00654358  0.58884130  0.50429435     1.51500
O1141       O  0.00125250  0.01750204  0.00047682    -1.42500
C1142       C  0.93162274  0.58483006  0.44707310     1.09000
C1143       C  0.58367951  0.92613858  0.44912166     1.09100
C1144       C  0.93520182  0.92914507  0.43659895     1.09100
C1145       C  0.57004480  0.57333288  0.43404259     1.09000
O1146       O  0.82059862  0.78138708  0.30614406    -0.80600
O1147       O  0.69209372  0.72647179  0.31831842    -0.80600
O1148       O  0.71222409  0.83208578  0.29874222    -0.80600
O1149       O  0.78645825  0.65788329  0.30099588    -0.80600
O1150       O  0.64962742  0.80129635  0.27650306    -0.80700
O1151       O  0.84192102  0.69788184  0.27345591    -0.80600
O1152       O  0.69998582  0.65594308  0.28769299    -0.80600
O1153       O  0.79297878  0.85038143  0.28870825    -0.80600
C1154       C  0.81907906  0.82632705  0.31314926     1.09100
C1155       C  0.68521559  0.68147062  0.31878070     1.09000
C1156       C  0.67129419  0.82896814  0.30287725     1.09100
C1157       C  0.82536976  0.66949669  0.30325296     1.09000
O1158       O  0.81180492  0.72503830  0.18130207    -0.80600
O1159       O  0.68850407  0.78692937  0.19396978    -0.80700
O1160       O  0.79924943  0.82999862  0.20330062    -0.80600
O1161       O  0.71206529  0.66914204  0.19355177    -0.80600
O1162       O  0.65834454  0.70708107  0.22628962    -0.80600
O1163       O  0.86023476  0.79058830  0.22386427    -0.80600
O1164       O  0.79842174  0.65276738  0.20845964    -0.80600
O1165       O  0.71727820  0.85388076  0.21073959    -0.80600
Co1166     Co  0.81152184  0.75498215  0.24279882     1.51500
Co1167     Co  0.69429926  0.75885395  0.25714183     1.51700
Co1168     Co  0.75439627  0.81235020  0.25017805     1.51600
Co1169     Co  0.74932481  0.66368709  0.24759898     1.51500
O1170       O  0.75258884  0.73627788  0.25079242    -1.42500
C1171       C  0.81694737  0.67957061  0.18026832     1.09000
C1172       C  0.69054438  0.83192147  0.18707450     1.09100
C1173       C  0.84000964  0.82278813  0.19925000     1.09100
C1174       C  0.67266894  0.67967082  0.19526404     1.09000
C1175       C  0.65895039  0.66060771  0.11516830    -0.06200
C1176       C  0.64503729  0.65727917  0.16031685    -0.00300
C1177       C  0.61217415  0.62468306  0.17151913    -0.08900
C1178       C  0.59446889  0.59624949  0.13682267    -0.06300
C1179       C  0.60838471  0.59953644  0.09164228    -0.00300
C1180       C  0.64087653  0.63261754  0.08035545    -0.08800
C1181       C  0.65518257  0.63977370  0.03170709     0.61600
H1182       H  0.68472452  0.68527130  0.10753333     0.12300
H1183       H  0.56877429  0.57151409  0.14451162     0.12300
C1184       C  0.59673065  0.61899483  0.21990016     0.61800
F1185       F  0.68719521  0.67390934  0.02837709    -0.23300
F1186       F  0.62081029  0.65551675  0.00437827    -0.20700
F1187       F  0.67088354  0.59658168  0.01570397    -0.20300
F1188       F  0.58088072  0.66281421  0.23431216    -0.20400
F1189       F  0.63035197  0.60381501  0.24856568    -0.20700
F1190       F  0.56441939  0.58523480  0.22322696    -0.23400
C1191       C  0.59447820  0.64935657  0.39841305    -0.06200
C1192       C  0.59929144  0.59863114  0.40223022    -0.00300
C1193       C  0.63453273  0.57644494  0.38119515    -0.08900
C1194       C  0.66231439  0.60567114  0.35615127    -0.06300
C1195       C  0.65732644  0.65636015  0.35209155    -0.00300
C1196       C  0.62312801  0.67875466  0.37469523    -0.08800
C1197       C  0.61517328  0.73286242  0.37262613     0.61600
H1198       H  0.56767555  0.66631224  0.41465875     0.12300
H1199       H  0.68846614  0.58858933  0.33897576     0.12300
C1200       C  0.64443192  0.52286474  0.38637053     0.61800
F1201       F  0.58149117  0.74683982  0.39930209    -0.23300
F1202       F  0.60491778  0.74672293  0.32824080    -0.20700
F1203       F  0.65132519  0.75654128  0.38817779    -0.20300
F1204       F  0.61037881  0.49676057  0.36917174    -0.20400
F1205       F  0.65196043  0.51162599  0.43192137    -0.20700
F1206       F  0.68060876  0.50926255  0.36331580    -0.23400
C1207       C  0.64210246  0.82971403  0.11961494    -0.06200
C1208       C  0.66040196  0.85726403  0.15445381    -0.00300
C1209       C  0.64596052  0.90579412  0.15997716    -0.08900
C1210       C  0.61366969  0.92451973  0.13007905    -0.06300
C1211       C  0.59534335  0.89695757  0.09524749    -0.00300
C1212       C  0.61002914  0.84855696  0.08951968    -0.08800
C1213       C  0.59343270  0.81686327  0.05131885     0.61600
H1214       H  0.65332278  0.79281283  0.11612731     0.12300
H1215       H  0.60242236  0.96140520  0.13359822     0.12300
C1216       C  0.66325155  0.93786595  0.19757621     0.61800
F1217       F  0.61415406  0.77224844  0.05135233    -0.23300
F1218       F  0.58119695  0.82599598  0.52152001    -0.20700
F1219       F  0.55017340  0.80849077  0.05621461    -0.20300
F1220       F  0.70654331  0.94556032  0.19208146    -0.20400
F1221       F  0.65678681  0.91613771  0.23966504    -0.20700
F1222       F  0.64304576  0.98279056  0.19711816    -0.23400
C1223       C  0.87540306  0.61986769  0.17246860    -0.06200
C1224       C  0.84840223  0.65549339  0.15108567    -0.00300
C1225       C  0.84928167  0.66246324  0.10340780    -0.08900
C1226       C  0.87744019  0.63349805  0.07873089    -0.06300
C1227       C  0.90442676  0.59786007  0.10014210    -0.00300
C1228       C  0.90351554  0.59090272  0.14780100    -0.08800
C1229       C  0.93258642  0.55389835  0.17240316     0.61600
H1230       H  0.87413244  0.61471715  0.20912223     0.12300
H1231       H  0.87877127  0.63864588  0.04208052     0.12300
C1232       C  0.82003140  0.69932155  0.07879502     0.61800
F1233       F  0.91427734  0.53508649  0.71369011    -0.23300
F1234       F  0.96628614  0.54444953  0.66327403    -0.20700
F1235       F  0.90956289  0.49710232  0.64729709    -0.20300
F1236       F  0.83027045  0.74530253  0.09274456    -0.20400
F1237       F  0.77776162  0.68994951  0.08862784    -0.20700
F1238       F  0.82399532  0.69815685  0.03198309    -0.23400
C1239       C  0.85655212  0.90091763  0.33778869    -0.06200
C1240       C  0.84840887  0.85139090  0.34624034    -0.00300
C1241       C  0.86947258  0.82795446  0.38420932    -0.08900
C1242       C  0.89768854  0.85478053  0.41196946    -0.06300
C1243       C  0.90595508  0.90422317  0.40341157    -0.00300
C1244       C  0.88514413  0.92763113  0.36528549    -0.08800
C1245       C  0.89315532  0.98037210  0.35321136     0.61600
H1246       H  0.84060845  0.91877692  0.30869550     0.12300
H1247       H  0.91342652  0.83700543  0.44122843     0.12300
C1248       C  0.86215913  0.77501520  0.39583676     0.61800
F1249       F  0.87455402  0.99414524  0.31149907    -0.23300
F1250       F  0.93676509  0.98830242  0.35098131    -0.20700
F1251       F  0.87581325  0.00913684  0.38597000    -0.20300
F1252       F  0.87944373  0.74693577  0.36252807    -0.20400
F1253       F  0.81868949  0.76660965  0.39853179    -0.20700
F1254       F  0.88134015  0.76090753  0.43716860    -0.23400
C1255       C  0.86216383  0.61379773  0.41710595    -0.06200
C1256       C  0.90572863  0.60698477  0.40956816    -0.00300
C1257       C  0.92313042  0.62102762  0.36689766    -0.08900
C1258       C  0.89540762  0.64135955  0.33332221    -0.06300
C1259       C  0.85171234  0.64785809  0.34077608    -0.00300
C1260       C  0.83439751  0.63369699  0.38349008    -0.08800
C1261       C  0.78706154  0.63838600  0.39435657     0.61600
H1262       H  0.84987124  0.60289154  0.44987179     0.12300
H1263       H  0.90773545  0.65235751  0.30059717     0.12300
C1264       C  0.97037970  0.61511473  0.35597274     0.61800
F1265       F  0.77947875  0.62816547  0.43982352    -0.23300
F1266       F  0.76377434  0.60590459  0.36889269    -0.20700
F1267       F  0.77234259  0.68500664  0.38488258    -0.20300
F1268       F  0.98415705  0.56814251  0.36553358    -0.20400
F1269       F  0.99454452  0.64694807  0.38132745    -0.20700
F1270       F  0.97796071  0.62497095  0.31044096    -0.23400
C1271       C  0.60567358  0.86114668  0.33750910    -0.06200
C1272       C  0.65026234  0.85506173  0.34059689    -0.00300
C1273       C  0.67269662  0.87126193  0.38050825    -0.08900
C1274       C  0.64929166  0.89322877  0.41490630    -0.06300
C1275       C  0.60472135  0.89950031  0.41172962    -0.00300
C1276       C  0.58220037  0.88252072  0.37215861    -0.08800
C1277       C  0.53368562  0.88629688  0.36541345     0.61600
H1278       H  0.58906124  0.84851133  0.30731131     0.12300
H1279       H  0.66590953  0.90596286  0.44506620     0.12300
C1280       C  0.72095743  0.86527671  0.38818751     0.61800
F1281       F  0.51970449  0.86904279  0.32370694    -0.23300
F1282       F  0.52038780  0.93412191  0.36724051    -0.20700
F1283       F  0.51425407  0.85883615  0.39873700    -0.20300
F1284       F  0.74210050  0.89269213  0.35607477    -0.20400
F1285       F  0.73257819  0.81700525  0.38537726    -0.20700
F1286       F  0.73463411  0.88063782  0.43069944    -0.23400
C1287       C  0.83682138  0.85570738  0.12069607    -0.06200
C1288       C  0.86067195  0.84968272  0.16198333    -0.00300
C1289       C  0.90094479  0.87196486  0.16702773    -0.08900
C1290       C  0.91631025  0.89890996  0.12990654    -0.06300
C1291       C  0.89249506  0.90486949  0.08860510    -0.00300
C1292       C  0.85208748  0.88290778  0.08365965    -0.08800
C1293       C  0.82588200  0.88696657  0.03933889     0.61600
H1294       H  0.80575393  0.83863347  0.11760542     0.12300
H1295       H  0.94739970  0.91593963  0.13298113     0.12300
C1296       C  0.92681293  0.86876537  0.21159650     0.61800
F1297       F  0.77815811  0.88783721  0.55285201    -0.23300
F1298       F  0.83402911  0.89379831  0.50697916    -0.20700
F1299       F  0.81321282  0.95779870  0.54790939    -0.20300
F1300       F  0.94044560  0.82155856  0.22009547    -0.20400
F1301       F  0.90180454  0.88368905  0.24689890    -0.20700
F1302       F  0.96267872  0.89782367  0.21063703    -0.23400
O1303       O  0.89349399  0.96532136  0.52596653    -0.80600
O1304       O  0.59483497  0.54692721  0.52634453    -0.80600
O1305       O  0.53645266  0.90272698  0.54117774    -0.80600
O1306       O  0.95671521  0.59932666  0.54265583    -0.80600
O1307       O  0.56592459  0.96938231  0.55738336    -0.80700
O1308       O  0.94333469  0.52671585  0.56836246    -0.80600
O1309       O  0.54070940  0.58509026  0.55821399    -0.80600
O1310       O  0.95401099  0.92500493  0.54597086    -0.80600
C1311       C  0.91339055  0.93266843  0.55036529     1.09100
C1312       C  0.58018247  0.57450021  0.55705848     1.09000
C1313       C  0.56341341  0.92451055  0.56475445     1.09100
C1314       C  0.93763156  0.57204247  0.57000258     1.09000
O1315       O  0.91236215  0.55602044  0.97760203    -0.80600
O1316       O  0.60651469  0.95394742  0.97347604    -0.80700
O1317       O  0.96037441  0.90376037  0.96196413    -0.80600
O1318       O  0.55310941  0.60161401  0.96468738    -0.80600
O1319       O  0.56139512  0.53151846  0.93328004    -0.80600
O1320       O  0.93380872  0.97303648  0.94460905    -0.80600
O1321       O  0.96799382  0.59643957  0.95116328    -0.80600
O1322       O  0.54409432  0.92246027  0.95152986    -0.80600
Co1323     Co  0.94252545  0.00043232  0.50716120     1.51500
Co1324     Co  0.55960696  0.49823712  0.99387338     1.51700
Co1325     Co  0.99952572  0.94239922  0.50019916     1.51600
Co1326     Co  0.00467704  0.59048653  0.00479308     1.51500
O1327       O  0.00167679  0.01833308  0.49958527    -1.42500
C1328       C  0.92917759  0.58475571  0.94833150     1.09000
C1329       C  0.58498520  0.92597221  0.94724853     1.09100
C1330       C  0.93458884  0.92815605  0.93744043     1.09100
C1331       C  0.56797128  0.57657057  0.93323879     1.09000
O1332       O  0.82077005  0.78023754  0.80454558    -0.80600
O1333       O  0.69095053  0.72782213  0.81617263    -0.80600
O1334       O  0.71294636  0.83260553  0.79602710    -0.80600
O1335       O  0.78486243  0.65819949  0.80158928    -0.80600
O1336       O  0.65015350  0.80302212  0.77310936    -0.80700
O1337       O  0.84101907  0.69645387  0.77348448    -0.80600
O1338       O  0.69865743  0.65713327  0.78603653    -0.80600
O1339       O  0.79393534  0.84941411  0.78728444    -0.80600
C1340       C  0.81982758  0.82510129  0.81173084     1.09100
C1341       C  0.68346916  0.68297578  0.81662444     1.09000
C1342       C  0.67195176  0.83064690  0.79947619     1.09100
C1343       C  0.82387877  0.66934448  0.80392330     1.09000
O1344       O  0.81219175  0.72196977  0.68057995    -0.80600
O1345       O  0.69023292  0.78692459  0.69140019    -0.80700
O1346       O  0.80035744  0.82839807  0.70207728    -0.80600
O1347       O  0.71270396  0.66854907  0.69251653    -0.80600
O1348       O  0.65877362  0.70796956  0.72349238    -0.80600
O1349       O  0.86080523  0.78802774  0.72213721    -0.80600
O1350       O  0.79865322  0.65058753  0.70936679    -0.80600
O1351       O  0.71902400  0.85352835  0.70844800    -0.80600
Co1352     Co  0.81171751  0.75330344  0.74143824     1.51500
Co1353     Co  0.69462307  0.75949056  0.75479457     1.51700
Co1354     Co  0.75533135  0.81167937  0.74851516     1.51600
Co1355     Co  0.74887076  0.66330250  0.74729284     1.51500
O1356       O  0.75267826  0.73576358  0.74950729    -1.42500
C1357       C  0.81730874  0.67642081  0.68047064     1.09000
C1358       C  0.69221589  0.83191188  0.68460243     1.09100
C1359       C  0.84091262  0.82054691  0.69756366     1.09100
C1360       C  0.67335671  0.67970208  0.69324929     1.09000
C1361       C  0.66281430  0.65354632  0.61455989    -0.06200
C1362       C  0.64599744  0.65651391  0.65847597    -0.00300
C1363       C  0.60968528  0.62904114  0.66964359    -0.08900
C1364       C  0.59118132  0.59989326  0.63600455    -0.06300
C1365       C  0.60768075  0.59738767  0.59193284    -0.00300
C1366       C  0.64443828  0.62420535  0.58099650    -0.08800
C1367       C  0.66371115  0.62268648  0.53413099     0.61600
H1368       H  0.69131545  0.67400074  0.60703184     0.12300
H1369       H  0.56306052  0.57888977  0.64371457     0.12300
C1370       C  0.59145036  0.62913219  0.71703647     0.61800
F1371       F  0.69930430  0.65194661  0.53086444    -0.23300
F1372       F  0.63372650  0.63849956  0.50143655    -0.20700
F1373       F  0.67639014  0.57582499  0.52517502    -0.20300
F1374       F  0.57784426  0.67537716  0.72707257    -0.20400
F1375       F  0.62252234  0.61372750  0.74870194    -0.20700
F1376       F  0.55682794  0.59854177  0.72082767    -0.23400
C1377       C  0.59400657  0.65303970  0.89914298    -0.06200
C1378       C  0.59591531  0.60195529  0.90007303    -0.00300
C1379       C  0.62706825  0.57865517  0.87378909    -0.08900
C1380       C  0.65609977  0.60726314  0.84994631    -0.06300
C1381       C  0.65440346  0.65828792  0.84909346    -0.00300
C1382       C  0.62239747  0.68169045  0.87416768    -0.08800
C1383       C  0.61637215  0.73613094  0.87329063     0.61600
H1384       H  0.56963114  0.67086177  0.91843330     0.12300
H1385       H  0.68078815  0.58928559  0.83123725     0.12300
C1386       C  0.63193004  0.52416671  0.87231428     0.61800
F1387       F  0.58383092  0.75102101  0.90107030    -0.23300
F1388       F  0.60553037  0.75120718  0.82935156    -0.20700
F1389       F  0.65368721  0.75804499  0.88814343    -0.20300
F1390       F  0.59351777  0.50358527  0.85892347    -0.20400
F1391       F  0.64490843  0.50733450  0.91503510    -0.20700
F1392       F  0.66247300  0.50965323  0.84196443    -0.23400
C1393       C  0.63564408  0.82874878  0.62449699    -0.06200
C1394       C  0.66121759  0.85759509  0.65283781    -0.00300
C1395       C  0.65277284  0.90834429  0.65372648    -0.08900
C1396       C  0.61937734  0.92780440  0.62562983    -0.06300
C1397       C  0.59395034  0.89895436  0.59711626    -0.00300
C1398       C  0.60200405  0.84812554  0.59674383    -0.08800
C1399       C  0.57622176  0.81387066  0.56703542     0.61600
H1400       H  0.64212468  0.79019594  0.62441494     0.12300
H1401       H  0.61292655  0.96636993  0.62562140     0.12300
C1402       C  0.67777822  0.94235619  0.68442708     0.61800
F1403       F  0.58931977  0.76606758  0.57351473    -0.23300
F1404       F  0.60008987  0.83936725  0.00962650    -0.20700
F1405       F  0.53333561  0.81653127  0.57759384    -0.20300
F1406       F  0.72078513  0.94088482  0.67421329    -0.20400
F1407       F  0.67266021  0.92894543  0.72962875    -0.20700
F1408       F  0.66390626  0.99000359  0.67894900    -0.23400
C1409       C  0.87062669  0.61058268  0.67023221    -0.06200
C1410       C  0.84817521  0.65125715  0.65093541    -0.00300
C1411       C  0.85387966  0.66373747  0.60464994    -0.08900
C1412       C  0.88240941  0.63561527  0.57960976    -0.06300
C1413       C  0.90537627  0.59545882  0.59907397    -0.00300
C1414       C  0.89898834  0.58226094  0.64507419    -0.08800
C1415       C  0.92251699  0.53931166  0.66768710     0.61600
H1416       H  0.86586960  0.60108316  0.70572279     0.12300
H1417       H  0.88718519  0.64511282  0.54411677     0.12300
C1418       C  0.82943961  0.70574298  0.58154189     0.61800
F1419       F  0.92886203  0.55526785  0.21923267    -0.23300
F1420       F  0.97489209  0.56271546  0.16230939    -0.20700
F1421       F  0.92181387  0.50805396  0.15863904    -0.20300
F1422       F  0.84274364  0.74877271  0.60008304    -0.20400
F1423       F  0.78590330  0.70043611  0.58765580    -0.20700
F1424       F  0.83617963  0.70832857  0.53514722    -0.23400
C1425       C  0.84577188  0.90055942  0.84811633    -0.06200
C1426       C  0.84889011  0.84968066  0.84568347    -0.00300
C1427       C  0.88111428  0.82532916  0.87297555    -0.08900
C1428       C  0.90845839  0.85270977  0.90125061    -0.06300
C1429       C  0.90538858  0.90359578  0.90362134    -0.00300
C1430       C  0.87296801  0.92791260  0.87658494    -0.08800
C1431       C  0.86649599  0.98240723  0.87760932     0.61600
H1432       H  0.82165362  0.91931508  0.82701246     0.12300
H1433       H  0.93263036  0.83396162  0.92230047     0.12300
C1434       C  0.88713311  0.77074454  0.87255667     0.61800
F1435       F  0.83413244  0.99869198  0.84770158    -0.23300
F1436       F  0.90386825  0.00508034  0.86531920    -0.20700
F1437       F  0.85543217  0.99561907  0.92091637    -0.20300
F1438       F  0.89853433  0.75689185  0.82954793    -0.20400
F1439       F  0.84941978  0.74865358  0.88462707    -0.20700
F1440       F  0.91904116  0.75442633  0.90300804    -0.23400
C1441       C  0.85964359  0.61384300  0.91818694    -0.06200
C1442       C  0.90326421  0.60685375  0.91082585    -0.00300
C1443       C  0.92095492  0.62126373  0.86837526    -0.08900
C1444       C  0.89342854  0.64140225  0.83465990    -0.06300
C1445       C  0.84980184  0.64824894  0.84192194    -0.00300
C1446       C  0.83223906  0.63473797  0.88467880    -0.08800
C1447       C  0.78527490  0.64245530  0.89603979     0.61600
H1448       H  0.84714800  0.60293159  0.95086339     0.12300
H1449       H  0.90592932  0.65215422  0.80195376     0.12300
C1450       C  0.96836373  0.61619606  0.85778419     0.61800
F1451       F  0.77792361  0.63348352  0.94176950    -0.23300
F1452       F  0.75984402  0.61121845  0.87137376    -0.20700
F1453       F  0.77286572  0.68985249  0.88615317    -0.20300
F1454       F  0.98262734  0.56935911  0.86700063    -0.20400
F1455       F  0.99191579  0.64818013  0.88360822    -0.20700
F1456       F  0.97624459  0.62666302  0.81242933    -0.23400
C1457       C  0.60639924  0.86128046  0.83530692    -0.06200
C1458       C  0.65116052  0.85743165  0.83694176    -0.00300
C1459       C  0.67410087  0.87635020  0.87542996    -0.08900
C1460       C  0.65081692  0.89671580  0.91075092    -0.06300
C1461       C  0.60600445  0.90021378  0.90926300    -0.00300
C1462       C  0.58316170  0.88190025  0.87049153    -0.08800
C1463       C  0.53450626  0.88326160  0.86526157     0.61600
H1464       H  0.58943297  0.84730613  0.80590475     0.12300
H1465       H  0.66775347  0.91057409  0.94022637     0.12300
C1466       C  0.72284535  0.87581229  0.88030996     0.61800
F1467       F  0.52002839  0.86454000  0.82434439    -0.23300
F1468       F  0.51957791  0.93052246  0.86665775    -0.20700
F1469       F  0.51716318  0.85552854  0.89973615    -0.20300
F1470       F  0.73981396  0.90240027  0.84480021    -0.20400
F1471       F  0.73826496  0.82866887  0.88050307    -0.20700
F1472       F  0.73735378  0.89635000  0.92039451    -0.23400
C1473       C  0.83441971  0.86350097  0.62313213    -0.06200
C1474       C  0.86141585  0.84791822  0.66021465    -0.00300
C1475       C  0.90499881  0.86105595  0.66104084    -0.08900
C1476       C  0.91982719  0.88946985  0.62463281    -0.06300
C1477       C  0.89284344  0.90508084  0.58755938    -0.00300
C1478       C  0.84917797  0.89220940  0.58687064    -0.08800
C1479       C  0.81830208  0.90799656  0.54825018     0.61600
H1480       H  0.80108943  0.85294930  0.62266153     0.12300
H1481       H  0.95315763  0.90001613  0.62513526     0.12300
C1482       C  0.93561906  0.84622377  0.70019332     0.61800
F1483       F  0.78966467  0.85847926  0.04040677    -0.23300
F1484       F  0.85037914  0.87212708  0.00354615    -0.20700
F1485       F  0.81273141  0.93445953  0.03151745    -0.20300
F1486       F  0.94126827  0.79648724  0.70127878    -0.20400
F1487       F  0.91924558  0.86082669  0.74104204    -0.20700
F1488       F  0.97557345  0.86691278  0.69582760    -0.23400
loop_ 
_geom_bond_atom_site_label_1 
_geom_bond_atom_site_label_2 
_geom_bond_distance 
_geom_bond_site_symmetry_2 
_ccdc_geom_bond_type 
O1            C9   1.281       .  A
O1          Co21   1.904       .  S
O2           C10   1.285       .  A
O2         Co208   2.039   1_544  S
O3           C11   1.243       .  A
O3         Co767   1.956   1_455  S
O4           C12   1.256       .  A
O4         Co210   1.979       .  S
O5           C11   1.257       .  A
O5         Co580   1.995   1_554  S
O6           C12   1.266       .  A
O6         Co393   2.003   1_545  S
O7           C10   1.264       .  A
O7         Co954   1.943       .  S
O8            C9   1.293       .  A
O8          Co23   2.036   1_554  S
C9          C175   1.488       .  S
C10          C63   1.473       .  S
C11          C95   1.486       .  S
C12         C111   1.480       .  S
O13          C26   1.282       .  A
O13        Co579   2.008       .  S
O14          C27   1.286       .  A
O14        Co394   1.921       .  S
O15          C28   1.247       .  A
O15        Co209   1.965       .  S
O16          C29   1.260       .  A
O16        Co768   1.972       .  S
O17          C29   1.264       .  A
O17         Co22   1.991   1_545  S
O18          C28   1.263       .  A
O18        Co207   2.027       .  S
O19          C26   1.257       .  A
O19         Co24   1.921       .  S
O20          C27   1.288       .  A
O20        Co953   2.039       .  S
Co21        O378   2.002       .  S
Co21        O571   2.006   1_554  S
Co21        O204   2.029   1_554  S
Co21         O25   1.934       .  S
Co22        O188   2.038   1_565  S
Co22        O563   1.995       .  S
Co22        O386   1.922       .  S
Co22       O1327   1.933   1_565  S
Co23        O747   1.958   1_556  S
Co23        O201   1.962       .  S
Co23        O950   2.038       .  S
Co23         O25   2.101   1_556  S
Co24        O190   1.970       .  S
Co24        O937   1.943       .  S
Co24        O760   1.968       .  S
Co24        O583   2.010       .  S
O25       Co1324   1.931   1_554  S
O25        Co582   2.013       .  S
C26         C140   1.458       .  S
C27         C159   1.496       .  S
C28         C127   1.509       .  S
C29          C76   1.491       .  S
O30          C38   1.264       .  A
O30         Co50   2.031       .  S
O31          C39   1.264       .  A
O31         Co51   1.989       .  S
O32          C40   1.288       .  A
O32         Co52   2.041       .  S
O33          C41   1.259       .  A
O33         Co53   1.925       .  S
O34          C40   1.285       .  A
O34         Co51   1.922       .  S
O35          C41   1.281       .  A
O35         Co50   2.004       .  S
O36          C39   1.262       .  A
O36         Co53   1.976       .  S
O37          C38   1.246       .  A
O37         Co52   1.961       .  S
C38         C124   1.509       .  S
C39          C79   1.490       .  S
C40         C156   1.498       .  S
C41         C143   1.455       .  S
O42          C55   1.266       .  A
O42         Co50   2.002       .  S
O43          C56   1.258       .  A
O43         Co51   1.997       .  S
O44          C57   1.293       .  A
O44         Co52   2.039       .  S
O45          C58   1.263       .  A
O45         Co53   1.941       .  S
O46          C58   1.284       .  A
O46         Co51   2.038       .  S
O47          C57   1.280       .  A
O47         Co50   1.901       .  S
O48          C55   1.256       .  A
O48         Co53   1.980       .  S
O49          C56   1.243       .  A
O49         Co52   1.955       .  S
Co50         O54   1.929       .  S
Co51         O54   1.931       .  S
Co52         O54   2.100       .  S
Co53         O54   2.014       .  S
C55         C108   1.480       .  S
C56          C92   1.486       .  S
C57         C172   1.488       .  S
C58          C60   1.472       .  S
C59          C60   1.408       .  A
C59          C64   1.404       .  A
C59          H66   1.084       .  S
C60          C61   1.412       .  A
C61          C62   1.405       .  A
C61          C68   1.518       .  S
C62          C63   1.408       .  A
C62          H67   1.084       .  S
C63          C64   1.412       .  A
C64          C65   1.518       .  S
C65          F69   1.384       .  S
C65          F70   1.381       .  S
C65          F71   1.383       .  S
C68          F72   1.383       .  S
C68          F73   1.382       .  S
C68          F74   1.385       .  S
C75          C76   1.409       .  A
C75          C80   1.402       .  A
C75          H82   1.081       .  S
C76          C77   1.417       .  A
C77          C78   1.403       .  A
C77          C84   1.513       .  S
C78          C79   1.410       .  A
C78          H83   1.082       .  S
C79          C80   1.417       .  A
C80          C81   1.513       .  S
C81          F85   1.385       .  S
C81          F86   1.378       .  S
C81          F87   1.382       .  S
C84          F88   1.381   1_545  S
C84          F89   1.379       .  S
C84          F90   1.385       .  S
C91          C92   1.404       .  A
C91          C96   1.405       .  A
C91          H98   1.082       .  S
C92          C93   1.425       .  A
C93          C94   1.404       .  A
C93         C100   1.523       .  S
C94          C95   1.404       .  A
C94          H99   1.082       .  S
C95          C96   1.425       .  A
C96          C97   1.523       .  S
C97         F101   1.386       .  S
C97         F103   1.383       .  S
C97         F288   1.383       .  S
C100        F104   1.383       .  S
C100        F105   1.383       .  S
C100        F106   1.386       .  S
F102        C283   1.381       .  S
C107        C108   1.407       .  A
C107        C112   1.411       .  A
C107        H114   1.085       .  S
C108        C109   1.412       .  A
C109        C110   1.411       .  A
C109        C116   1.514       .  S
C110        C111   1.406       .  A
C110        H115   1.085       .  S
C111        C112   1.412       .  A
C112        C113   1.515       .  S
C113        F303   1.384       .  S
C113        F304   1.382       .  S
C113        F305   1.384       .  S
C116        F120   1.383       .  S
C116        F121   1.382       .  S
C116        F122   1.384       .  S
F117        C299   1.384       .  S
F118        C299   1.384       .  S
F119        C299   1.383       .  S
C123        C124   1.411       .  A
C123        C128   1.413       .  A
C123        H130   1.080       .  S
C124        C125   1.421       .  A
C125        C126   1.412       .  A
C125        C132   1.517       .  S
C126        C127   1.410       .  A
C126        H131   1.080       .  S
C127        C128   1.422       .  A
C128        C129   1.518       .  S
C129        F133   1.384       .  S
C129        F134   1.380       .  S
C129        F135   1.383       .  S
C132        F136   1.384       .  S
C132        F137   1.379       .  S
C132        F138   1.384       .  S
C139        C140   1.394       .  A
C139        C144   1.393       .  A
C139        H146   1.084       .  S
C140        C141   1.426       .  A
C141        C142   1.394       .  A
C141        C148   1.525       .  S
C142        C143   1.393       .  A
C142        H147   1.084       .  S
C143        C144   1.423       .  A
C144        C145   1.523       .  S
C145        F149   1.386       .  S
C145        F150   1.381       .  S
C145        F151   1.384       .  S
C148        F152   1.383       .  S
C148        F153   1.382       .  S
C148        F154   1.385       .  S
C155        C156   1.399       .  A
C155        C160   1.408       .  A
C155        H162   1.082       .  S
C156        C157   1.432       .  A
C157        C158   1.406       .  A
C157        C164   1.521       .  S
C158        C159   1.398       .  A
C158        H163   1.082       .  S
C159        C160   1.432       .  A
C160        C161   1.523       .  S
C161        F165   1.386       .  S
C161        F166   1.384       .  S
C161        F167   1.382       .  S
C164        F168   1.380       .  S
C164        F169   1.383       .  S
C164        F170   1.386       .  S
C171        C172   1.415       .  A
C171        C176   1.404       .  A
C171        H178   1.081       .  S
C172        C173   1.414       .  A
C173        C174   1.403       .  A
C173        C180   1.522       .  S
C174        C175   1.415       .  A
C174        H179   1.080       .  S
C175        C176   1.414       .  A
C176        C177   1.522       .  S
C177        F367   1.385       .  S
C177        F368   1.384       .  S
C177        F369   1.383       .  S
C180        F184   1.384       .  S
C180        F185   1.384       .  S
C180        F186   1.385       .  S
F181        C363   1.385       .  S
F182        C363   1.383       .  S
F183        C363   1.382       .  S
O187        C195   1.281       .  A
O187       Co207   1.907       .  S
O188        C196   1.285       .  A
O189        C197   1.244       .  A
O189       Co953   1.968       .  S
O190        C198   1.256       .  A
O191        C197   1.255       .  A
O191       Co394   1.991       .  S
O192        C198   1.266       .  A
O192       Co579   2.000       .  S
O193        C196   1.263       .  A
O193       Co768   1.941       .  S
O194        C195   1.294       .  A
O194       Co209   2.039       .  S
C195        C361   1.491       .  S
C196        C249   1.475       .  S
C197        C281   1.482       .  S
C198        C297   1.487       .  S
O199        C212   1.281       .  A
O199       Co393   2.006   1_546  S
O200        C213   1.286       .  A
O200       Co580   1.919       .  S
O201        C214   1.247       .  A
O202        C215   1.260       .  A
O202       Co954   1.968   1_556  S
O203        C215   1.264       .  A
O203       Co208   1.991   1_545  S
O204        C214   1.264       .  A
O205        C212   1.259       .  A
O205       Co210   1.928   1_556  S
O206        C213   1.289       .  A
O206       Co767   2.047   1_456  S
Co207       O564   2.003       .  S
Co207       O385   2.005       .  S
Co207       O211   1.931       .  S
Co208       O377   1.995   1_556  S
Co208       O572   1.921       .  S
Co208      O1141   1.928   1_566  S
Co209       O933   1.963       .  S
Co209       O764   2.042       .  S
Co209       O211   2.102       .  S
Co210       O751   1.941       .  S
Co210       O946   1.973   1_554  S
Co210       O397   2.013   1_554  S
O211      Co1138   1.932       .  S
O211       Co396   2.013       .  S
C212        C326   1.459       .  S
C213        C345   1.502       .  S
C214        C313   1.510       .  S
C215        C262   1.491       .  S
O216        C224   1.263       .  A
O216       Co236   2.025       .  S
O217        C225   1.264       .  A
O217       Co237   1.991       .  S
O218        C226   1.288       .  A
O218       Co238   2.040       .  S
O219        C227   1.259       .  A
O219       Co239   1.928       .  S
O220        C226   1.286       .  A
O220       Co237   1.922       .  S
O221        C227   1.282       .  A
O221       Co236   2.008       .  S
O222        C225   1.260       .  A
O222       Co239   1.967       .  S
O223        C224   1.248       .  A
O223       Co238   1.967       .  S
C224        C310   1.510       .  S
C225        C265   1.491       .  S
C226        C342   1.502       .  S
C227        C329   1.460       .  S
O228        C241   1.266       .  A
O228       Co236   2.002       .  S
O229        C242   1.257       .  A
O229       Co237   1.996       .  S
O230        C243   1.294       .  A
O230       Co238   2.038       .  S
O231        C244   1.263       .  A
O231       Co239   1.940       .  S
O232        C244   1.285       .  A
O232       Co237   2.039       .  S
O233        C243   1.280       .  A
O233       Co236   1.906       .  S
O234        C241   1.256       .  A
O234       Co239   1.967       .  S
O235        C242   1.244       .  A
O235       Co238   1.960       .  S
Co236       O240   1.931       .  S
Co237       O240   1.931       .  S
Co238       O240   2.098       .  S
Co239       O240   2.008       .  S
C241        C294   1.487       .  S
C242        C278   1.481       .  S
C243        C358   1.490       .  S
C244        C246   1.476       .  S
C245        C246   1.410       .  A
C245        C250   1.405       .  A
C245        H252   1.084       .  S
C246        C247   1.412       .  A
C247        C248   1.405       .  A
C247        C254   1.519       .  S
C248        C249   1.410       .  A
C248        H253   1.084       .  S
C249        C250   1.412       .  A
C250        C251   1.519       .  S
C251        F255   1.385       .  S
C251        F256   1.382       .  S
C251        F257   1.383       .  S
C254        F258   1.383       .  S
C254        F259   1.382       .  S
C254        F260   1.385       .  S
C261        C262   1.412       .  A
C261        C266   1.402       .  A
C261        H268   1.082       .  S
C262        C263   1.416       .  A
C263        C264   1.401       .  A
C263        C270   1.514       .  S
C264        C265   1.411       .  A
C264        H269   1.082       .  S
C265        C266   1.415       .  A
C266        C267   1.513       .  S
C267        F271   1.385       .  S
C267        F272   1.377       .  S
C267        F273   1.383       .  S
C270        F274   1.382   1_545  S
C270        F275   1.378       .  S
C270        F276   1.385       .  S
C277        C278   1.403       .  A
C277        C282   1.405       .  A
C277        H284   1.083       .  S
C278        C279   1.423       .  A
C279        C280   1.403       .  A
C279        C286   1.522       .  S
C280        C281   1.402       .  A
C280        H285   1.082       .  S
C281        C282   1.424       .  A
C282        C283   1.522       .  S
C283        F287   1.386       .  S
C283        F289   1.382       .  S
C286        F290   1.383       .  S
C286        F291   1.381       .  S
C286        F292   1.385       .  S
C293        C294   1.414       .  A
C293        C298   1.408       .  A
C293        H300   1.084       .  S
C294        C295   1.410       .  A
C295        C296   1.409       .  A
C295        C302   1.518       .  S
C296        C297   1.415       .  A
C296        H301   1.084       .  S
C297        C298   1.410       .  A
C298        C299   1.518       .  S
C302        F306   1.383       .  S
C302        F307   1.384       .  S
C302        F308   1.384       .  S
C309        C310   1.411       .  A
C309        C314   1.414       .  A
C309        H316   1.081       .  S
C310        C311   1.423       .  A
C311        C312   1.413       .  A
C311        C318   1.519       .  S
C312        C313   1.411       .  A
C312        H317   1.081       .  S
C313        C314   1.422       .  A
C314        C315   1.517       .  S
C315        F319   1.384       .  S
C315        F320   1.381       .  S
C315        F321   1.383       .  S
C318        F322   1.383       .  S
C318        F323   1.381       .  S
C318        F324   1.384       .  S
C325        C326   1.394       .  A
C325        C330   1.395       .  A
C325        H332   1.084       .  S
C326        C327   1.424       .  A
C327        C328   1.395       .  A
C327        C334   1.524       .  S
C328        C329   1.395       .  A
C328        H333   1.084       .  S
C329        C330   1.425       .  A
C330        C331   1.524       .  S
C331        F335   1.385       .  S
C331        F336   1.382       .  S
C331        F337   1.383       .  S
C334        F338   1.383       .  S
C334        F339   1.382       .  S
C334        F340   1.386       .  S
C341        C342   1.400       .  A
C341        C346   1.409       .  A
C341        H348   1.081       .  S
C342        C343   1.432       .  A
C343        C344   1.406       .  A
C343        C350   1.523       .  S
C344        C345   1.400       .  A
C344        H349   1.081       .  S
C345        C346   1.433       .  A
C346        C347   1.523       .  S
C347        F351   1.385       .  S
C347        F352   1.383       .  S
C347        F353   1.383       .  S
C350        F354   1.382       .  S
C350        F355   1.383       .  S
C350        F356   1.385       .  S
C357        C358   1.414       .  A
C357        C362   1.404       .  A
C357        H364   1.082       .  S
C358        C359   1.416       .  A
C359        C360   1.404       .  A
C359        C366   1.522       .  S
C360        C361   1.415       .  A
C360        H365   1.082       .  S
C361        C362   1.416       .  A
C362        C363   1.522       .  S
C366        F370   1.383       .  S
C366        F371   1.384       .  S
C366        F372   1.385       .  S
O373        C381   1.280       .  A
O373       Co393   1.901       .  S
O374        C382   1.287       .  A
O374       Co580   2.045   1_554  S
O375        C383   1.243       .  A
O375      Co1139   1.956   1_455  S
O376        C384   1.256       .  A
O376       Co582   1.976       .  S
O377        C383   1.256       .  A
O378        C384   1.266       .  A
O379        C382   1.263       .  A
O379      Co1326   1.941       .  S
O380        C381   1.295       .  A
O380       Co395   2.045   1_554  S
C381        C547   1.493       .  S
C382        C435   1.475       .  S
C383        C467   1.482       .  S
C384        C483   1.480       .  S
O385        C398   1.282       .  A
O386        C399   1.285       .  A
O387        C400   1.247       .  A
O387       Co581   1.967       .  S
O388        C401   1.261       .  A
O388      Co1140   1.972       .  S
O389        C401   1.263       .  A
O389       Co394   1.988       .  S
O390        C400   1.262       .  A
O390       Co579   2.026   1_565  S
O391        C398   1.260       .  A
O391       Co396   1.930       .  S
O392        C399   1.288       .  A
O392      Co1325   2.039   1_455  S
Co393       O576   2.027   1_554  S
Co393       O397   1.928   1_564  S
Co394       O560   2.040       .  S
Co394       O955   1.927       .  S
Co395      O1119   1.960   1_556  S
Co395       O573   1.967       .  S
Co395      O1322   2.046       .  S
Co395       O397   2.103   1_565  S
Co396       O562   1.979       .  S
Co396      O1309   1.945       .  S
Co396      O1132   1.974       .  S
O397       Co952   1.929   1_545  S
C398        C512   1.460       .  S
C399        C531   1.496       .  S
C400        C499   1.511       .  S
C401        C448   1.489       .  S
O402        C410   1.263       .  A
O402       Co422   2.027       .  S
O403        C411   1.262       .  A
O403       Co423   1.989       .  S
O404        C412   1.289       .  A
O404       Co424   2.045       .  S
O405        C413   1.258       .  A
O405       Co425   1.926       .  S
O406        C412   1.286       .  A
O406       Co423   1.919       .  S
O407        C413   1.281       .  A
O407       Co422   2.005       .  S
O408        C411   1.260       .  A
O408       Co425   1.973       .  S
O409        C410   1.247       .  A
O409       Co424   1.965       .  S
C410        C496   1.510       .  S
C411        C451   1.490       .  S
C412        C528   1.497       .  S
C413        C515   1.461       .  S
O414        C427   1.268       .  A
O414       Co422   2.004       .  S
O415        C428   1.256       .  A
O415       Co423   1.990       .  S
O416        C429   1.295       .  A
O416       Co424   2.041       .  S
O417        C430   1.262       .  A
O417       Co425   1.940       .  S
O418        C430   1.287       .  A
O418       Co423   2.046       .  S
O419        C429   1.281       .  A
O419       Co422   1.906       .  S
O420        C427   1.256       .  A
O420       Co425   1.973       .  S
O421        C428   1.245       .  A
O421       Co424   1.963       .  S
Co422       O426   1.933       .  S
Co423       O426   1.928       .  S
Co424       O426   2.104       .  S
Co425       O426   2.011       .  S
C427        C480   1.480       .  S
C428        C464   1.482       .  S
C429        C544   1.493       .  S
C430        C432   1.475       .  S
C431        C432   1.408       .  A
C431        C436   1.406       .  A
C431        H438   1.084       .  S
C432        C433   1.413       .  A
C433        C434   1.406       .  A
C433        C440   1.518       .  S
C434        C435   1.408       .  A
C434        H439   1.084       .  S
C435        C436   1.413       .  A
C436        C437   1.518       .  S
C437        F441   1.385       .  S
C437        F442   1.381       .  S
C437        F443   1.383       .  S
C440        F444   1.383       .  S
C440        F445   1.382       .  S
C440        F446   1.385       .  S
C447        C448   1.410       .  A
C447        C452   1.402       .  A
C447        H454   1.082       .  S
C448        C449   1.416       .  A
C449        C450   1.401       .  A
C449        C456   1.513       .  S
C450        C451   1.409       .  A
C450        H455   1.082       .  S
C451        C452   1.416       .  A
C452        C453   1.513       .  S
C453        F457   1.385       .  S
C453        F458   1.377       .  S
C453        F459   1.382       .  S
C456        F460   1.381       .  S
C456        F461   1.379       .  S
C456        F462   1.385       .  S
C463        C464   1.403       .  A
C463        C468   1.403       .  A
C463        H470   1.082       .  S
C464        C465   1.424       .  A
C465        C466   1.404       .  A
C465        C472   1.522       .  S
C466        C467   1.403       .  A
C466        H471   1.082       .  S
C467        C468   1.423       .  A
C468        C469   1.523       .  S
C469        F473   1.386       .  S
C469        F660   1.383       .  S
C469        F475   1.383       .  S
C472        F476   1.382       .  S
C472        F477   1.382       .  S
C472        F478   1.386       .  S
F474        C655   1.383       .  S
C479        C480   1.404       .  A
C479        C484   1.411       .  A
C479        H486   1.082       .  S
C480        C481   1.417       .  A
C481        C482   1.411       .  A
C481        C488   1.517       .  S
C482        C483   1.405       .  A
C482        H487   1.083       .  S
C483        C484   1.416       .  A
C484        C485   1.517       .  S
C485        F675   1.384       .  S
C485        F676   1.382       .  S
C485        F677   1.383       .  S
C488        F492   1.383       .  S
C488        F493   1.382       .  S
C488        F494   1.384       .  S
F489        C671   1.384       .  S
F490        C671   1.382       .  S
F491        C671   1.384       .  S
C495        C496   1.411       .  A
C495        C500   1.413       .  A
C495        H502   1.081       .  S
C496        C497   1.422       .  A
C497        C498   1.414       .  A
C497        C504   1.518       .  S
C498        C499   1.412       .  A
C498        H503   1.081       .  S
C499        C500   1.423       .  A
C500        C501   1.518       .  S
C501        F505   1.384       .  S
C501        F506   1.381   1_565  S
C501        F507   1.383       .  S
C504        F508   1.383       .  S
C504        F509   1.381       .  S
C504        F510   1.384       .  S
C511        C512   1.394       .  A
C511        C516   1.394       .  A
C511        H518   1.084       .  S
C512        C513   1.424       .  A
C513        C514   1.394       .  A
C513        C520   1.524       .  S
C514        C515   1.395       .  A
C514        H519   1.084       .  S
C515        C516   1.426       .  A
C516        C517   1.524       .  S
C517        F521   1.385       .  S
C517        F522   1.381       .  S
C517        F523   1.383       .  S
C520        F524   1.383       .  S
C520        F525   1.381       .  S
C520        F526   1.386       .  S
C527        C528   1.399       .  A
C527        C532   1.407       .  A
C527        H534   1.082       .  S
C528        C529   1.432       .  A
C529        C530   1.407       .  A
C529        C536   1.522       .  S
C530        C531   1.399       .  A
C530        H535   1.082       .  S
C531        C532   1.432       .  A
C532        C533   1.524       .  S
C533        F537   1.386       .  S
C533        F538   1.383       .  S
C533        F539   1.382       .  S
C536        F540   1.381       .  S
C536        F541   1.383       .  S
C536        F542   1.386       .  S
C543        C544   1.415       .  A
C543        C548   1.404       .  A
C543        H550   1.080       .  S
C544        C545   1.416       .  A
C545        C546   1.405       .  A
C545        C552   1.522       .  S
C546        C547   1.415       .  A
C546        H551   1.080       .  S
C547        C548   1.417       .  A
C548        C549   1.523       .  S
C549        F739   1.385       .  S
C549        F740   1.383       .  S
C549        F741   1.383       .  S
C552        F556   1.382       .  S
C552        F557   1.384       .  S
C552        F558   1.385       .  S
F553        C735   1.385       .  S
F554        C735   1.384       .  S
F555        C735   1.384       .  S
O559        C567   1.281       .  A
O559       Co579   1.907   1_565  S
O560        C568   1.285       .  A
O561        C569   1.243       .  A
O561      Co1325   1.962   1_455  S
O562        C570   1.256       .  A
O563        C569   1.257       .  A
O564        C570   1.266       .  A
O565        C568   1.263       .  A
O565      Co1140   1.944       .  S
O566        C567   1.293       .  A
O566       Co581   2.038       .  S
C567        C733   1.493       .  S
C568        C621   1.473       .  S
C569        C653   1.487       .  S
C570        C669   1.480       .  S
O571        C584   1.282       .  A
O572        C585   1.286       .  A
O573        C586   1.248       .  A
O574        C587   1.260       .  A
O574      Co1326   1.971   1_556  S
O575        C587   1.263       .  A
O575       Co580   1.990       .  S
O576        C586   1.263       .  A
O577        C584   1.258       .  A
O577       Co582   1.924   1_556  S
O578        C585   1.289       .  A
O578      Co1139   2.047   1_456  S
Co579       O583   1.931       .  S
Co580       O769   1.930   1_556  S
Co581      O1305   1.957       .  S
Co581      O1136   2.043       .  S
Co581       O583   2.099   1_565  S
Co582      O1123   1.942       .  S
Co582      O1318   1.978   1_554  S
O583       Co766   1.929   1_545  S
C584        C698   1.459       .  S
C585        C717   1.501       .  S
C586        C685   1.510       .  S
C587        C634   1.492       .  S
O588        C596   1.263       .  A
O588       Co608   2.027       .  S
O589        C597   1.263       .  A
O589       Co609   1.988       .  S
O590        C598   1.289       .  A
O590       Co610   2.042       .  S
O591        C599   1.258       .  A
O591       Co611   1.925       .  S
O592        C598   1.286       .  A
O592       Co609   1.926       .  S
O593        C599   1.282       .  A
O593       Co608   2.008       .  S
O594        C597   1.262       .  A
O594       Co611   1.973       .  S
O595        C596   1.248       .  A
O595       Co610   1.967       .  S
C596        C682   1.511       .  S
C597        C637   1.494       .  S
C598        C714   1.502       .  S
C599        C701   1.460       .  S
O600        C613   1.266       .  A
O600       Co608   2.002       .  S
O601        C614   1.257       .  A
O601       Co609   1.994       .  S
O602        C615   1.294       .  A
O602       Co610   2.039       .  S
O603        C616   1.262       .  A
O603       Co611   1.940       .  S
O604        C616   1.285       .  A
O604       Co609   2.042       .  S
O605        C615   1.280       .  A
O605       Co608   1.906       .  S
O606        C613   1.256       .  A
O606       Co611   1.979       .  S
O607        C614   1.245       .  A
O607       Co610   1.961       .  S
Co608       O612   1.933       .  S
Co609       O612   1.937       .  S
Co610       O612   2.100       .  S
Co611       O612   2.012       .  S
C613        C666   1.479       .  S
C614        C650   1.488       .  S
C615        C730   1.493       .  S
C616        C618   1.473       .  S
C617        C618   1.407       .  A
C617        C622   1.404       .  A
C617        H624   1.084       .  S
C618        C619   1.413       .  A
C619        C620   1.405       .  A
C619        C626   1.517       .  S
C620        C621   1.408       .  A
C620        H625   1.084       .  S
C621        C622   1.412       .  A
C622        C623   1.517       .  S
C623        F627   1.384       .  S
C623        F628   1.380       .  S
C623        F629   1.383       .  S
C626        F630   1.383       .  S
C626        F631   1.381       .  S
C626        F632   1.385       .  S
C633        C634   1.411       .  A
C633        C638   1.403       .  A
C633        H640   1.082       .  S
C634        C635   1.415       .  A
C635        C636   1.401       .  A
C635        C642   1.512       .  S
C636        C637   1.411       .  A
C636        H641   1.082       .  S
C637        C638   1.418       .  A
C638        C639   1.514       .  S
C639        F643   1.385       .  S
C639        F644   1.377       .  S
C639        F645   1.382       .  S
C642        F646   1.383       .  S
C642        F647   1.376       .  S
C642        F648   1.385       .  S
C649        C650   1.404       .  A
C649        C654   1.406       .  A
C649        H656   1.082       .  S
C650        C651   1.424       .  A
C651        C652   1.405       .  A
C651        C658   1.523       .  S
C652        C653   1.404       .  A
C652        H657   1.082       .  S
C653        C654   1.425       .  A
C654        C655   1.523       .  S
C655        F659   1.386       .  S
C655        F661   1.383       .  S
C658        F662   1.383       .  S
C658        F663   1.383       .  S
C658        F664   1.385       .  S
C665        C666   1.406       .  A
C665        C670   1.410       .  A
C665        H672   1.085       .  S
C666        C667   1.413       .  A
C667        C668   1.411       .  A
C667        C674   1.515       .  S
C668        C669   1.407       .  A
C668        H673   1.085       .  S
C669        C670   1.412       .  A
C670        C671   1.514       .  S
C674        F678   1.384       .  S
C674        F679   1.383       .  S
C674        F680   1.384       .  S
C681        C682   1.410       .  A
C681        C686   1.413       .  A
C681        H688   1.081       .  S
C682        C683   1.423       .  A
C683        C684   1.414       .  A
C683        C690   1.517       .  S
C684        C685   1.411       .  A
C684        H689   1.081       .  S
C685        C686   1.423       .  A
C686        C687   1.517       .  S
C687        F691   1.384       .  S
C687        F692   1.380   1_565  S
C687        F693   1.383       .  S
C690        F694   1.383       .  S
C690        F695   1.380       .  S
C690        F696   1.384       .  S
C697        C698   1.394       .  A
C697        C702   1.394       .  A
C697        H704   1.084       .  S
C698        C699   1.426       .  A
C699        C700   1.394       .  A
C699        C706   1.524       .  S
C700        C701   1.394       .  A
C700        H705   1.084       .  S
C701        C702   1.426       .  A
C702        C703   1.525       .  S
C703        F707   1.386       .  S
C703        F708   1.382       .  S
C703        F709   1.383       .  S
C706        F710   1.383       .  S
C706        F711   1.382       .  S
C706        F712   1.385       .  S
C713        C714   1.400       .  A
C713        C718   1.410       .  A
C713        H720   1.082       .  S
C714        C715   1.433       .  A
C715        C716   1.407       .  A
C715        C722   1.522       .  S
C716        C717   1.399       .  A
C716        H721   1.081       .  S
C717        C718   1.433       .  A
C718        C719   1.522       .  S
C719        F723   1.386       .  S
C719        F724   1.383       .  S
C719        F725   1.381       .  S
C722        F726   1.381       .  S
C722        F727   1.383       .  S
C722        F728   1.385       .  S
C729        C730   1.416       .  A
C729        C734   1.404       .  A
C729        H736   1.080       .  S
C730        C731   1.415       .  A
C731        C732   1.405       .  A
C731        C738   1.523       .  S
C732        C733   1.416       .  A
C732        H737   1.080       .  S
C733        C734   1.416       .  A
C734        C735   1.522       .  S
C738        F742   1.383       .  S
C738        F743   1.384       .  S
C738        F744   1.385       .  S
O745        C753   1.282       .  A
O745       Co765   1.909       .  S
O746        C754   1.285       .  A
O746       Co952   2.040   1_544  S
O747        C755   1.243       .  A
O748        C756   1.254       .  A
O748       Co954   1.964   1_655  S
O749        C755   1.257       .  A
O749      Co1324   1.991   1_554  S
O750        C756   1.266       .  A
O750      Co1137   2.006   1_545  S
O751        C754   1.263       .  A
O752        C753   1.293       .  A
O752       Co767   2.041       .  S
C753        C919   1.472       .  S
C754        C807   1.474       .  S
C755        C839   1.484       .  S
C756        C855   1.484       .  S
O757        C770   1.285       .  A
O757      Co1323   2.013       .  S
O758        C771   1.285       .  A
O758      Co1138   1.924       .  S
O759        C772   1.247       .  A
O759       Co953   1.960   1_655  S
O760        C773   1.260       .  A
O761        C773   1.263       .  A
O761       Co766   1.990   1_545  S
O762        C772   1.263       .  A
O762       Co951   2.024       .  S
O763        C770   1.259       .  A
O763       Co768   1.926   1_655  S
O764        C771   1.289       .  A
Co765      O1122   2.004       .  S
Co765      O1315   2.010   1_554  S
Co765       O948   2.027   1_554  S
Co765       O769   1.934   1_655  S
Co766       O932   2.043   1_565  S
Co766      O1307   1.995       .  S
Co766      O1130   1.921       .  S
Co767       O945   1.964   1_554  S
Co767       O769   2.102   1_655  S
Co768       O934   1.965   1_455  S
Co768      O1327   2.010       .  S
O769      Co1326   2.012       .  S
C770        C884   1.469       .  S
C771        C903   1.502       .  S
C772        C871   1.503       .  S
C773        C820   1.491       .  S
O774        C782   1.263       .  A
O774       Co794   2.026       .  S
O775        C783   1.264       .  A
O775       Co795   1.991       .  S
O776        C784   1.288       .  A
O776       Co796   2.043       .  S
O777        C785   1.258       .  A
O777       Co797   1.925       .  S
O778        C784   1.287       .  A
O778       Co795   1.923       .  S
O779        C785   1.283       .  A
O779       Co794   2.008       .  S
O780        C783   1.259       .  A
O780       Co797   1.968       .  S
O781        C782   1.246       .  A
O781       Co796   1.961       .  S
C782        C868   1.504       .  S
C783        C823   1.492       .  S
C784        C900   1.501       .  S
C785        C887   1.466       .  S
O786        C799   1.267       .  A
O786       Co794   2.006       .  S
O787        C800   1.257       .  A
O787       Co795   1.995       .  S
O788        C801   1.293       .  A
O788       Co796   2.040       .  S
O789        C802   1.263       .  A
O789       Co797   1.941       .  S
O790        C802   1.286       .  A
O790       Co795   2.043       .  S
O791        C801   1.282       .  A
O791       Co794   1.909       .  S
O792        C799   1.255       .  A
O792       Co797   1.965       .  S
O793        C800   1.242       .  A
O793       Co796   1.953       .  S
Co794       O798   1.932       .  S
Co795       O798   1.930       .  S
Co796       O798   2.101       .  S
Co797       O798   2.011       .  S
C799        C852   1.485       .  S
C800        C836   1.483       .  S
C801        C916   1.471       .  S
C802        C804   1.475       .  S
C803        C804   1.409       .  A
C803        C808   1.405       .  A
C803        H810   1.084       .  S
C804        C805   1.413       .  A
C805        C806   1.405       .  A
C805        C812   1.517       .  S
C806        C807   1.408       .  A
C806        H811   1.084       .  S
C807        C808   1.412       .  A
C808        C809   1.518       .  S
C809        F813   1.385       .  S
C809        F814   1.382       .  S
C809        F815   1.383       .  S
C812        F816   1.383       .  S
C812        F817   1.381       .  S
C812        F818   1.384       .  S
C819        C820   1.411       .  A
C819        C824   1.401       .  A
C819        H826   1.081       .  S
C820        C821   1.415       .  A
C821        C822   1.402       .  A
C821        C828   1.514       .  S
C822        C823   1.412       .  A
C822        H827   1.082       .  S
C823        C824   1.416       .  A
C824        C825   1.514       .  S
C825        F829   1.385       .  S
C825        F830   1.377       .  S
C825        F831   1.383       .  S
C828        F832   1.383       .  S
C828        F833   1.377       .  S
C828        F834   1.385       .  S
C835        C836   1.404       .  A
C835        C840   1.404       .  A
C835        H842   1.082       .  S
C836        C837   1.424       .  A
C837        C838   1.403       .  A
C837        C844   1.523       .  S
C838        C839   1.403       .  A
C838        H843   1.082       .  S
C839        C840   1.424       .  A
C840        C841   1.523       .  S
C841        F845   1.386       .  S
C841       F1032   1.383       .  S
C841        F847   1.383       .  S
C844        F848   1.383       .  S
C844        F849   1.383       .  S
C844        F850   1.386       .  S
F846       C1027   1.381       .  S
C851        C852   1.414       .  A
C851        C856   1.409       .  A
C851        H858   1.084       .  S
C852        C853   1.410       .  A
C853        C854   1.408       .  A
C853        C860   1.516       .  S
C854        C855   1.413       .  A
C854        H859   1.084       .  S
C855        C856   1.410       .  A
C856        C857   1.517       .  S
C857       F1047   1.385       .  S
C857       F1048   1.384       .  S
C857       F1049   1.382       .  S
C860        F864   1.381       .  S
C860        F865   1.383       .  S
C860        F866   1.385       .  S
F861       C1043   1.384       .  S
F862       C1043   1.384       .  S
F863       C1043   1.383       .  S
C867        C868   1.411       .  A
C867        C872   1.412       .  A
C867        H874   1.082       .  S
C868        C869   1.419       .  A
C869        C870   1.411       .  A
C869        C876   1.514       .  S
C870        C871   1.410       .  A
C870        H875   1.082       .  S
C871        C872   1.419       .  A
C872        C873   1.515       .  S
C873        F877   1.384       .  S
C873        F878   1.383       .  S
C873        F879   1.381       .  S
C876        F880   1.380       .  S
C876        F881   1.382       .  S
C876        F882   1.384       .  S
C883        C884   1.397       .  A
C883        C888   1.396       .  A
C883        H890   1.083       .  S
C884        C885   1.428       .  A
C885        C886   1.394       .  A
C885        C892   1.525       .  S
C886        C887   1.395       .  A
C886        H891   1.083       .  S
C887        C888   1.426       .  A
C888        C889   1.526       .  S
C889        F893   1.385       .  S
C889        F894   1.382       .  S
C889        F895   1.382       .  S
C892        F896   1.383       .  S
C892        F897   1.382       .  S
C892        F898   1.385       .  S
C899        C900   1.399       .  A
C899        C904   1.407       .  A
C899        H906   1.082       .  S
C900        C901   1.433       .  A
C901        C902   1.409       .  A
C901        C908   1.523       .  S
C902        C903   1.400       .  A
C902        H907   1.081       .  S
C903        C904   1.433       .  A
C904        C905   1.520       .  S
C905        F909   1.386       .  S
C905        F910   1.384       .  S
C905        F911   1.380       .  S
C908        F912   1.382       .  S
C908        F913   1.383       .  S
C908        F914   1.385       .  S
C915        C916   1.409       .  A
C915        C920   1.403       .  A
C915        H922   1.085       .  S
C916        C917   1.409       .  A
C917        C918   1.403       .  A
C917        C924   1.518       .  S
C918        C919   1.409       .  A
C918        H923   1.085       .  S
C919        C920   1.410       .  A
C920        C921   1.518       .  S
C921       F1111   1.385       .  S
C921       F1112   1.382       .  S
C921       F1113   1.382       .  S
C924        F928   1.382       .  S
C924        F929   1.383       .  S
C924        F930   1.385       .  S
F925       C1107   1.385       .  S
F926       C1107   1.384       .  S
F927       C1107   1.383       .  S
O931        C939   1.282       .  A
O931       Co951   1.903       .  S
O932        C940   1.286       .  A
O933        C941   1.244       .  A
O934        C942   1.254       .  A
O935        C941   1.256       .  A
O935      Co1138   1.995       .  S
O936        C942   1.266       .  A
O936      Co1323   2.003       .  S
O937        C940   1.263       .  A
O938        C939   1.295       .  A
O938       Co953   2.040   1_655  S
C939       C1105   1.487       .  S
C940        C993   1.472       .  S
C941       C1025   1.483       .  S
C942       C1041   1.486       .  S
O943        C956   1.283       .  A
O943      Co1137   2.009   1_546  S
O944        C957   1.286       .  A
O944      Co1324   1.926       .  S
O945        C958   1.247       .  A
O946        C959   1.261       .  A
O947        C959   1.263       .  A
O947       Co952   1.990   1_545  S
O948        C958   1.263       .  A
O949        C956   1.259       .  A
O949       Co954   1.927   1_656  S
O950        C957   1.287       .  A
Co951      O1308   2.003       .  S
Co951      O1129   2.011       .  S
Co951       O955   1.928   1_655  S
Co952      O1121   1.995   1_556  S
Co952      O1316   1.918       .  S
Co953       O955   2.104       .  S
Co954      O1141   2.011       .  S
O955      Co1140   2.012       .  S
C956       C1070   1.466       .  S
C957       C1089   1.502       .  S
C958       C1057   1.504       .  S
C959       C1006   1.492       .  S
O960        C968   1.263       .  A
O960       Co980   2.025       .  S
O961        C969   1.263       .  A
O961       Co981   1.988       .  S
O962        C970   1.288       .  A
O962       Co982   2.039       .  S
O963        C971   1.259       .  A
O963       Co983   1.925       .  S
O964        C970   1.286       .  A
O964       Co981   1.922       .  S
O965        C971   1.284       .  A
O965       Co980   2.014       .  S
O966        C969   1.260       .  A
O966       Co983   1.970       .  S
O967        C968   1.248       .  A
O967       Co982   1.964       .  S
C968       C1054   1.503       .  S
C969       C1009   1.491       .  S
C970       C1086   1.500       .  S
C971       C1073   1.468       .  S
O972        C985   1.265       .  A
O972       Co980   2.002       .  S
O973        C986   1.256       .  A
O973       Co981   1.993       .  S
O974        C987   1.294       .  A
O974       Co982   2.038       .  S
O975        C988   1.263       .  A
O975       Co983   1.946       .  S
O976        C988   1.286       .  A
O976       Co981   2.043       .  S
O977        C987   1.282       .  A
O977       Co980   1.905       .  S
O978        C985   1.254       .  A
O978       Co983   1.965       .  S
O979        C986   1.245       .  A
O979       Co982   1.968       .  S
Co980       O984   1.931       .  S
Co981       O984   1.929       .  S
Co982       O984   2.103       .  S
Co983       O984   2.012       .  S
C985       C1038   1.485       .  S
C986       C1022   1.484       .  S
C987       C1102   1.488       .  S
C988        C990   1.473       .  S
C989        C990   1.407       .  A
C989        C994   1.407       .  A
C989        H996   1.084       .  S
C990        C991   1.414       .  A
C991        C992   1.405       .  A
C991        C998   1.517       .  S
C992        C993   1.405       .  A
C992        H997   1.084       .  S
C993        C994   1.414       .  A
C994        C995   1.517       .  S
C995        F999   1.385       .  S
C995       F1000   1.381       .  S
C995       F1001   1.383       .  S
C998       F1002   1.383       .  S
C998       F1003   1.381       .  S
C998       F1004   1.385       .  S
C1005      C1006   1.411       .  A
C1005      C1010   1.402       .  A
C1005      H1012   1.082       .  S
C1006      C1007   1.416       .  A
C1007      C1008   1.401       .  A
C1007      C1014   1.513       .  S
C1008      C1009   1.410       .  A
C1008      H1013   1.081       .  S
C1009      C1010   1.416       .  A
C1010      C1011   1.513       .  S
C1011      F1015   1.385       .  S
C1011      F1016   1.378       .  S
C1011      F1017   1.383       .  S
C1014      F1018   1.383       .  S
C1014      F1019   1.377       .  S
C1014      F1020   1.385       .  S
C1021      C1022   1.403       .  A
C1021      C1026   1.404       .  A
C1021      H1028   1.082       .  S
C1022      C1023   1.424       .  A
C1023      C1024   1.405       .  A
C1023      C1030   1.522       .  S
C1024      C1025   1.403       .  A
C1024      H1029   1.082       .  S
C1025      C1026   1.423       .  A
C1026      C1027   1.522       .  S
C1027      F1031   1.385       .  S
C1027      F1033   1.383       .  S
C1030      F1034   1.382       .  S
C1030      F1035   1.380       .  S
C1030      F1036   1.386       .  S
C1037      C1038   1.414       .  A
C1037      C1042   1.408       .  A
C1037      H1044   1.084       .  S
C1038      C1039   1.410       .  A
C1039      C1040   1.409       .  A
C1039      C1046   1.518       .  S
C1040      C1041   1.415       .  A
C1040      H1045   1.084       .  S
C1041      C1042   1.410       .  A
C1042      C1043   1.518       .  S
C1046      F1050   1.383       .  S
C1046      F1051   1.384       .  S
C1046      F1052   1.384       .  S
C1053      C1054   1.411       .  A
C1053      C1058   1.412       .  A
C1053      H1060   1.083       .  S
C1054      C1055   1.418       .  A
C1055      C1056   1.412       .  A
C1055      C1062   1.516       .  S
C1056      C1057   1.411       .  A
C1056      H1061   1.082       .  S
C1057      C1058   1.419       .  A
C1058      C1059   1.515       .  S
C1059      F1063   1.384       .  S
C1059      F1064   1.383       .  S
C1059      F1065   1.380       .  S
C1062      F1066   1.380       .  S
C1062      F1067   1.383       .  S
C1062      F1068   1.384       .  S
C1069      C1070   1.395       .  A
C1069      C1074   1.395       .  A
C1069      H1076   1.083       .  S
C1070      C1071   1.426       .  A
C1071      C1072   1.396       .  A
C1071      C1078   1.525       .  S
C1072      C1073   1.396       .  A
C1072      H1077   1.083       .  S
C1073      C1074   1.428       .  A
C1074      C1075   1.525       .  S
C1075      F1079   1.385       .  S
C1075      F1080   1.382       .  S
C1075      F1081   1.382       .  S
C1078      F1082   1.383       .  S
C1078      F1083   1.382       .  S
C1078      F1084   1.385       .  S
C1085      C1086   1.399       .  A
C1085      C1090   1.407       .  A
C1085      H1092   1.081       .  S
C1086      C1087   1.433       .  A
C1087      C1088   1.408       .  A
C1087      C1094   1.524       .  S
C1088      C1089   1.400       .  A
C1088      H1093   1.081       .  S
C1089      C1090   1.433       .  A
C1090      C1091   1.522       .  S
C1091      F1095   1.386       .  S
C1091      F1096   1.383       .  S
C1091      F1097   1.382       .  S
C1094      F1098   1.383       .  S
C1094      F1099   1.383       .  S
C1094      F1100   1.385       .  S
C1101      C1102   1.415       .  A
C1101      C1106   1.403       .  A
C1101      H1108   1.083       .  S
C1102      C1103   1.414       .  A
C1103      C1104   1.404       .  A
C1103      C1110   1.521       .  S
C1104      C1105   1.415       .  A
C1104      H1109   1.083       .  S
C1105      C1106   1.414       .  A
C1106      C1107   1.522       .  S
C1110      F1114   1.383       .  S
C1110      F1115   1.384       .  S
C1110      F1116   1.385       .  S
O1117      C1125   1.282       .  A
O1117     Co1137   1.907       .  S
O1118      C1126   1.285       .  A
O1118     Co1324   2.043   1_554  S
O1119      C1127   1.244       .  A
O1120      C1128   1.255       .  A
O1120     Co1326   1.966   1_655  S
O1121      C1127   1.257       .  A
O1122      C1128   1.266       .  A
O1123      C1126   1.262       .  A
O1124      C1125   1.294       .  A
O1124     Co1139   2.043       .  S
C1125      C1291   1.475       .  S
C1126      C1179   1.475       .  S
C1127      C1211   1.482       .  S
C1128      C1227   1.483       .  S
O1129      C1142   1.285       .  A
O1130      C1143   1.286       .  A
O1131      C1144   1.246       .  A
O1131     Co1325   1.957       .  S
O1132      C1145   1.262       .  A
O1133      C1145   1.264       .  A
O1133     Co1138   1.990       .  S
O1134      C1144   1.263       .  A
O1134     Co1323   2.028   1_565  S
O1135      C1142   1.259       .  A
O1135     Co1140   1.927   1_655  S
O1136      C1143   1.289       .  A
Co1137     O1320   2.026   1_554  S
Co1137     O1141   1.931   1_665  S
Co1138     O1304   2.036       .  S
Co1139     O1317   1.960   1_554  S
Co1139     O1141   2.103   1_665  S
Co1140     O1306   1.968   1_455  S
C1142      C1256   1.466       .  S
C1143      C1275   1.499       .  S
C1144      C1243   1.501       .  S
C1145      C1192   1.491       .  S
O1146      C1154   1.264       .  A
O1146     Co1166   2.028       .  S
O1147      C1155   1.264       .  A
O1147     Co1167   1.991       .  S
O1148      C1156   1.290       .  A
O1148     Co1168   2.046       .  S
O1149      C1157   1.259       .  A
O1149     Co1169   1.926       .  S
O1150      C1156   1.285       .  A
O1150     Co1167   1.919       .  S
O1151      C1157   1.284       .  A
O1151     Co1166   2.013       .  S
O1152      C1155   1.261       .  A
O1152     Co1169   1.974       .  S
O1153      C1154   1.246       .  A
O1153     Co1168   1.960       .  S
C1154      C1240   1.502       .  S
C1155      C1195   1.491       .  S
C1156      C1272   1.498       .  S
C1157      C1259   1.468       .  S
O1158      C1171   1.266       .  A
O1158     Co1166   2.004       .  S
O1159      C1172   1.257       .  A
O1159     Co1167   1.996       .  S
O1160      C1173   1.294       .  A
O1160     Co1168   2.045       .  S
O1161      C1174   1.263       .  A
O1161     Co1169   1.943       .  S
O1162      C1174   1.285       .  A
O1162     Co1167   2.041       .  S
O1163      C1173   1.282       .  A
O1163     Co1166   1.908       .  S
O1164      C1171   1.255       .  A
O1164     Co1169   1.965       .  S
O1165      C1172   1.243       .  A
O1165     Co1168   1.958       .  S
Co1166     O1170   1.934       .  S
Co1167     O1170   1.931       .  S
Co1168     O1170   2.103       .  S
Co1169     O1170   2.013       .  S
C1171      C1224   1.483       .  S
C1172      C1208   1.482       .  S
C1173      C1288   1.475       .  S
C1174      C1176   1.474       .  S
C1175      C1176   1.408       .  A
C1175      C1180   1.406       .  A
C1175      H1182   1.084       .  S
C1176      C1177   1.412       .  A
C1177      C1178   1.406       .  A
C1177      C1184   1.518       .  S
C1178      C1179   1.409       .  A
C1178      H1183   1.084       .  S
C1179      C1180   1.413       .  A
C1180      C1181   1.518       .  S
C1181      F1185   1.385       .  S
C1181      F1186   1.382       .  S
C1181      F1187   1.383       .  S
C1184      F1188   1.383       .  S
C1184      F1189   1.382       .  S
C1184      F1190   1.384       .  S
C1191      C1192   1.409       .  A
C1191      C1196   1.402       .  A
C1191      H1198   1.082       .  S
C1192      C1193   1.417       .  A
C1193      C1194   1.402       .  A
C1193      C1200   1.512       .  S
C1194      C1195   1.409       .  A
C1194      H1199   1.081       .  S
C1195      C1196   1.416       .  A
C1196      C1197   1.512       .  S
C1197      F1201   1.385       .  S
C1197      F1202   1.378       .  S
C1197      F1203   1.382       .  S
C1200      F1204   1.381       .  S
C1200      F1205   1.379       .  S
C1200      F1206   1.385       .  S
C1207      C1208   1.402       .  A
C1207      C1212   1.404       .  A
C1207      H1214   1.082       .  S
C1208      C1209   1.424       .  A
C1209      C1210   1.404       .  A
C1209      C1216   1.523       .  S
C1210      C1211   1.402       .  A
C1210      H1215   1.082       .  S
C1211      C1212   1.424       .  A
C1212      C1213   1.522       .  S
C1213      F1217   1.386       .  S
C1213      F1404   1.382       .  S
C1213      F1219   1.383       .  S
C1216      F1220   1.383       .  S
C1216      F1221   1.382       .  S
C1216      F1222   1.386       .  S
F1218      C1399   1.383       .  S
C1223      C1224   1.413       .  A
C1223      C1228   1.408       .  A
C1223      H1230   1.084       .  S
C1224      C1225   1.410       .  A
C1225      C1226   1.409       .  A
C1225      C1232   1.517       .  S
C1226      C1227   1.413       .  A
C1226      H1231   1.084       .  S
C1227      C1228   1.409       .  A
C1228      C1229   1.516       .  S
C1229      F1419   1.385       .  S
C1229      F1420   1.384       .  S
C1229      F1421   1.381       .  S
C1232      F1236   1.382       .  S
C1232      F1237   1.384       .  S
C1232      F1238   1.385       .  S
F1233      C1415   1.385       .  S
F1234      C1415   1.384       .  S
F1235      C1415   1.383       .  S
C1239      C1240   1.412       .  A
C1239      C1244   1.412       .  A
C1239      H1246   1.083       .  S
C1240      C1241   1.418       .  A
C1241      C1242   1.411       .  A
C1241      C1248   1.515       .  S
C1242      C1243   1.411       .  A
C1242      H1247   1.082       .  S
C1243      C1244   1.418       .  A
C1244      C1245   1.516       .  S
C1245      F1249   1.384       .  S
C1245      F1250   1.383       .  S
C1245      F1251   1.380   1_565  S
C1248      F1252   1.380       .  S
C1248      F1253   1.382       .  S
C1248      F1254   1.384       .  S
C1255      C1256   1.395       .  A
C1255      C1260   1.394       .  A
C1255      H1262   1.083       .  S
C1256      C1257   1.426       .  A
C1257      C1258   1.397       .  A
C1257      C1264   1.525       .  S
C1258      C1259   1.397       .  A
C1258      H1263   1.083       .  S
C1259      C1260   1.427       .  A
C1260      C1261   1.524       .  S
C1261      F1265   1.385       .  S
C1261      F1266   1.381       .  S
C1261      F1267   1.382       .  S
C1264      F1268   1.383       .  S
C1264      F1269   1.382       .  S
C1264      F1270   1.385       .  S
C1271      C1272   1.400       .  A
C1271      C1276   1.407       .  A
C1271      H1278   1.082       .  S
C1272      C1273   1.432       .  A
C1273      C1274   1.408       .  A
C1273      C1280   1.523       .  S
C1274      C1275   1.400       .  A
C1274      H1279   1.082       .  S
C1275      C1276   1.432       .  A
C1276      C1277   1.523       .  S
C1277      F1281   1.386       .  S
C1277      F1282   1.383       .  S
C1277      F1283   1.381       .  S
C1280      F1284   1.382       .  S
C1280      F1285   1.383       .  S
C1280      F1286   1.386       .  S
C1287      C1288   1.410       .  A
C1287      C1292   1.404       .  A
C1287      H1294   1.085       .  S
C1288      C1289   1.411       .  A
C1289      C1290   1.404       .  A
C1289      C1296   1.519       .  S
C1290      C1291   1.410       .  A
C1290      H1295   1.085       .  S
C1291      C1292   1.410       .  A
C1292      C1293   1.519       .  S
C1293      F1483   1.385       .  S
C1293      F1484   1.384       .  S
C1293      F1485   1.383       .  S
C1296      F1300   1.382       .  S
C1296      F1301   1.383       .  S
C1296      F1302   1.385       .  S
F1297      C1479   1.385       .  S
F1298      C1479   1.384       .  S
F1299      C1479   1.383       .  S
O1303      C1311   1.283       .  A
O1303     Co1323   1.908   1_565  S
O1304      C1312   1.285       .  A
O1305      C1313   1.244       .  A
O1306      C1314   1.255       .  A
O1307      C1313   1.257       .  A
O1308      C1314   1.265       .  A
O1309      C1312   1.264       .  A
O1310      C1311   1.293       .  A
O1310     Co1325   2.036       .  S
C1311      C1477   1.481       .  S
C1312      C1365   1.476       .  S
C1313      C1397   1.487       .  S
C1314      C1413   1.490       .  S
O1315      C1328   1.283       .  A
O1316      C1329   1.285       .  A
O1317      C1330   1.246       .  A
O1318      C1331   1.262       .  A
O1319      C1331   1.264       .  A
O1319     Co1324   1.986       .  S
O1320      C1330   1.263       .  A
O1321      C1328   1.258       .  A
O1321     Co1326   1.924   1_656  S
O1322      C1329   1.290       .  A
Co1323     O1327   1.933   1_655  S
Co1325     O1327   2.099   1_665  S
C1328      C1442   1.465       .  S
C1329      C1461   1.500       .  S
C1330      C1429   1.507       .  S
C1331      C1378   1.493       .  S
O1332      C1340   1.262       .  A
O1332     Co1352   2.027       .  S
O1333      C1341   1.263       .  A
O1333     Co1353   1.991       .  S
O1334      C1342   1.287       .  A
O1334     Co1354   2.038       .  S
O1335      C1343   1.259       .  A
O1335     Co1355   1.926       .  S
O1336      C1342   1.286       .  A
O1336     Co1353   1.923       .  S
O1337      C1343   1.284       .  A
O1337     Co1352   2.010       .  S
O1338      C1341   1.260       .  A
O1338     Co1355   1.968       .  S
O1339      C1340   1.246       .  A
O1339     Co1354   1.960       .  S
C1340      C1426   1.507       .  S
C1341      C1381   1.492       .  S
C1342      C1458   1.499       .  S
C1343      C1445   1.465       .  S
O1344      C1357   1.267       .  A
O1344     Co1352   2.004       .  S
O1345      C1358   1.257       .  A
O1345     Co1353   1.994       .  S
O1346      C1359   1.292       .  A
O1346     Co1354   2.034       .  S
O1347      C1360   1.263       .  A
O1347     Co1355   1.941       .  S
O1348      C1360   1.286       .  A
O1348     Co1353   2.040       .  S
O1349      C1359   1.283       .  A
O1349     Co1352   1.908       .  S
O1350      C1357   1.255       .  A
O1350     Co1355   1.969       .  S
O1351      C1358   1.243       .  A
O1351     Co1354   1.959       .  S
Co1352     O1356   1.929       .  S
Co1353     O1356   1.931       .  S
Co1354     O1356   2.099       .  S
Co1355     O1356   2.009       .  S
C1357      C1410   1.491       .  S
C1358      C1394   1.487       .  S
C1359      C1474   1.481       .  S
C1360      C1362   1.475       .  S
C1361      C1362   1.409       .  A
C1361      C1366   1.405       .  A
C1361      H1368   1.084       .  S
C1362      C1363   1.412       .  A
C1363      C1364   1.405       .  A
C1363      C1370   1.518       .  S
C1364      C1365   1.409       .  A
C1364      H1369   1.083       .  S
C1365      C1366   1.412       .  A
C1366      C1367   1.518       .  S
C1367      F1371   1.385       .  S
C1367      F1372   1.382       .  S
C1367      F1373   1.383       .  S
C1370      F1374   1.383       .  S
C1370      F1375   1.381       .  S
C1370      F1376   1.384       .  S
C1377      C1378   1.411       .  A
C1377      C1382   1.404       .  A
C1377      H1384   1.082       .  S
C1378      C1379   1.416       .  A
C1379      C1380   1.400       .  A
C1379      C1386   1.513       .  S
C1380      C1381   1.410       .  A
C1380      H1385   1.082       .  S
C1381      C1382   1.417       .  A
C1382      C1383   1.513       .  S
C1383      F1387   1.385       .  S
C1383      F1388   1.378       .  S
C1383      F1389   1.383       .  S
C1386      F1390   1.383       .  S
C1386      F1391   1.376       .  S
C1386      F1392   1.385       .  S
C1393      C1394   1.404       .  A
C1393      C1398   1.404       .  A
C1393      H1400   1.082       .  S
C1394      C1395   1.425       .  A
C1395      C1396   1.405       .  A
C1395      C1402   1.523       .  S
C1396      C1397   1.405       .  A
C1396      H1401   1.082       .  S
C1397      C1398   1.424       .  A
C1398      C1399   1.523       .  S
C1399      F1403   1.385       .  S
C1399      F1405   1.383       .  S
C1402      F1406   1.383       .  S
C1402      F1407   1.384       .  S
C1402      F1408   1.386       .  S
C1409      C1410   1.416       .  A
C1409      C1414   1.411       .  A
C1409      H1416   1.083       .  S
C1410      C1411   1.411       .  A
C1411      C1412   1.409       .  A
C1411      C1418   1.518       .  S
C1412      C1413   1.415       .  A
C1412      H1417   1.083       .  S
C1413      C1414   1.411       .  A
C1414      C1415   1.518       .  S
C1418      F1422   1.382       .  S
C1418      F1423   1.384       .  S
C1418      F1424   1.385       .  S
C1425      C1426   1.412       .  A
C1425      C1430   1.412       .  A
C1425      H1432   1.081       .  S
C1426      C1427   1.422       .  A
C1427      C1428   1.412       .  A
C1427      C1434   1.518       .  S
C1428      C1429   1.412       .  A
C1428      H1433   1.081       .  S
C1429      C1430   1.421       .  A
C1430      C1431   1.518       .  S
C1431      F1435   1.384       .  S
C1431      F1436   1.382   1_565  S
C1431      F1437   1.383       .  S
C1434      F1438   1.383       .  S
C1434      F1439   1.382       .  S
C1434      F1440   1.384       .  S
C1441      C1442   1.396       .  A
C1441      C1446   1.396       .  A
C1441      H1448   1.083       .  S
C1442      C1443   1.427       .  A
C1443      C1444   1.394       .  A
C1443      C1450   1.525       .  S
C1444      C1445   1.395       .  A
C1444      H1449   1.083       .  S
C1445      C1446   1.427       .  A
C1446      C1447   1.526       .  S
C1447      F1451   1.386       .  S
C1447      F1452   1.382       .  S
C1447      F1453   1.383       .  S
C1450      F1454   1.382       .  S
C1450      F1455   1.382       .  S
C1450      F1456   1.385       .  S
C1457      C1458   1.399       .  A
C1457      C1462   1.406       .  A
C1457      H1464   1.081       .  S
C1458      C1459   1.433       .  A
C1459      C1460   1.407       .  A
C1459      C1466   1.523       .  S
C1460      C1461   1.400       .  A
C1460      H1465   1.081       .  S
C1461      C1462   1.432       .  A
C1462      C1463   1.521       .  S
C1463      F1467   1.385       .  S
C1463      F1468   1.383       .  S
C1463      F1469   1.381       .  S
C1466      F1470   1.382       .  S
C1466      F1471   1.383       .  S
C1466      F1472   1.386       .  S
C1473      C1474   1.414       .  A
C1473      C1478   1.403       .  A
C1473      H1480   1.083       .  S
C1474      C1475   1.411       .  A
C1475      C1476   1.403       .  A
C1475      C1482   1.520       .  S
C1476      C1477   1.414       .  A
C1476      H1481   1.083       .  S
C1477      C1478   1.411       .  A
C1478      C1479   1.520       .  S
C1482      F1486   1.383       .  S
C1482      F1487   1.384       .  S
C1482      F1488   1.385       .  S
