geometry optimzed in LAMMPS
_audit_creation_date              2020-11-30 
_audit_creation_method            'lammps2cif' 
_symmetry_space_group_name_H-M    'P1' 
_symmetry_Int_Tables_number       1 
_symmetry_cell_setting            triclinic 
loop_ 
_symmetry_equiv_pos_as_xyz 
  x,y,z 
_cell_length_a                    34.77454037 
_cell_length_b                    38.83443480137007 
_cell_length_c                    29.667996910459593 
_cell_angle_alpha                 89.47983407080118 
_cell_angle_beta                  88.97133911885184 
_cell_angle_gamma                 91.18487483057488 
loop_ 
_atom_site_label 
_atom_site_type_symbol 
_atom_site_fract_x 
_atom_site_fract_y 
_atom_site_fract_z 
_atom_site_charge 
C1          C  0.04025139  0.49339718  0.27366384     0.30900
C2          C  0.46125373  0.49650757  0.27353215     0.30900
C3          C  0.02040162  0.49985988  0.31941624    -0.05300
C4          C  0.02290125  0.02235833  0.24299794    -0.06100
C5          C  0.01897292  0.46114508  0.25624314    -0.05900
C6          C  0.48052482  0.50208972  0.31924966    -0.05300
C7          C  0.48288616  0.02486962  0.24414832    -0.06000
C8          C  0.47877059  0.46289321  0.25660017    -0.05900
C9          C  0.46888052  0.00843926  0.36314843    -0.31300
N10         N  0.50036211  0.00852377  0.38955420     0.15200
C11         C  0.03190454  0.00426969  0.36282753    -0.31300
H12         H  0.06107329  0.00195864  0.37481108     0.17100
C13         C  0.47395389  0.05300925  0.21772691    -0.30300
N14         N  0.00647775  0.06594150  0.19845088     0.13900
C15         C  0.03674455  0.04789896  0.21381082    -0.30300
C16         C  0.46546028  0.43857808  0.22668052    -0.30600
N17         N  0.99594239  0.42214828  0.20828558     0.14400
H18         H  0.43598789  0.43501790  0.21628236     0.17000
C19         C  0.02843821  0.43745211  0.22366530    -0.30600
H20         H  0.05695086  0.43324006  0.20984636     0.17000
H21         H  0.06650779  0.05333214  0.20490367     0.17000
H22         H  0.43984752  0.01150991  0.37555031     0.17100
H23         H  0.44565930  0.06329306  0.21243826     0.17000
C24         C  0.21071300  0.99692209  0.27323391     0.30900
C25         C  0.29012266  0.99951108  0.27067415     0.30900
C26         C  0.23062771  0.00188430  0.31856179    -0.05300
C27         C  0.23107669  0.46413422  0.25486966    -0.06100
C28         C  0.22941280  0.02544192  0.24367853    -0.05900
C29         C  0.27074589  0.00375446  0.31739587    -0.05300
C30         C  0.27127780  0.46532858  0.25465188    -0.06000
C31         C  0.26962380  0.02779962  0.24357149    -0.05900
C32         C  0.28265293  0.50803785  0.36140355    -0.31300
N33         N  0.25094766  0.50815797  0.38868784     0.15200
C34         C  0.21928867  0.50389363  0.36319857    -0.31300
H35         H  0.18990870  0.50178309  0.37623421     0.17100
C36         C  0.28397206  0.43882383  0.22811593    -0.30300
N37         N  0.25306677  0.42228059  0.21051083     0.13900
C38         C  0.22091125  0.43839865  0.22521643    -0.30300
C39         C  0.27963569  0.05687350  0.21853965    -0.30600
N40         N  0.24721962  0.07006965  0.20124430     0.14400
H41         H  0.30811316  0.06794985  0.21323833     0.17000
C42         C  0.21652554  0.05089775  0.21563429    -0.30600
H43         H  0.18717163  0.05507655  0.20577453     0.17000
H44         H  0.19247040  0.43369106  0.21216615     0.17000
H45         H  0.31172507  0.51064493  0.37305035     0.17100
H46         H  0.31367285  0.43375433  0.21940805     0.17000
C47         C  0.03863634  0.00277383  0.69628810     0.30900
C48         C  0.45964171  0.00349216  0.69674840     0.30900
C49         C  0.01937766  0.99366692  0.65188978    -0.05300
C50         C  0.01746313  0.47945378  0.73153799    -0.06100
C51         C  0.02042853  0.03783668  0.70782842    -0.05900
C52         C  0.47947689  0.99390482  0.65222514    -0.05300
C53         C  0.47730219  0.47964567  0.73136174    -0.06000
C54         C  0.47974275  0.03833478  0.70818008    -0.05900
C55         C  0.46767111  0.49529990  0.60797589    -0.31300
N56         N  0.49957858  0.49476472  0.58098870     0.15200
C57         C  0.03087537  0.49511969  0.60788405    -0.31300
H58         H  0.06028652  0.49779868  0.59577249     0.17100
C59         C  0.46474869  0.45782277  0.76571797    -0.30300
N60         N  0.99601017  0.44417913  0.78634139     0.13900
C61         C  0.02824129  0.45796520  0.76612327    -0.30300
C62         C  0.46936852  0.06307574  0.73931831    -0.30600
N63         N  0.00120650  0.07835628  0.75609181     0.14400
H64         H  0.44068699  0.06693730  0.75279700     0.17000
C65         C  0.03223240  0.06280821  0.73787547    -0.30600
H66         H  0.06150434  0.06745529  0.74835668     0.17000
H67         H  0.05705927  0.45206342  0.77510363     0.17000
H68         H  0.43859834  0.49847816  0.59618849     0.17100
H69         H  0.43496064  0.45186478  0.77531984     0.17000
C70         C  0.20871763  0.50097922  0.69751105     0.30900
C71         C  0.28803128  0.50144542  0.69607837     0.30900
C72         C  0.22858626  0.50307019  0.65112086    -0.05300
C73         C  0.22919440  0.02933255  0.72353802    -0.06100
C74         C  0.22759690  0.46893492  0.71872781    -0.05900
C75         C  0.26851717  0.50331298  0.65035550    -0.05300
C76         C  0.26936184  0.02952126  0.72306827    -0.06000
C77         C  0.26807520  0.46916936  0.71760080    -0.05900
C78         C  0.28073291  0.00204100  0.60566920    -0.31300
N79         N  0.24896128  0.00157649  0.57975987     0.15200
C80         C  0.21726933  0.00137793  0.60709476    -0.31300
H81         H  0.18807908  0.00041994  0.59584036     0.17100
C82         C  0.28111948  0.05334256  0.75446611    -0.30300
N83         N  0.24958216  0.06863594  0.77213743     0.13900
C84         C  0.21777257  0.05345215  0.75456478    -0.30300
C85         C  0.27936096  0.44550654  0.74936181    -0.30600
N86         N  0.24782767  0.43062709  0.76945113     0.14400
H87         H  0.30879308  0.44047621  0.75860694     0.17000
C88         C  0.21624185  0.44551525  0.75212615    -0.30600
H89         H  0.18739858  0.44122909  0.76513589     0.17000
H90         H  0.18837856  0.05872289  0.76505468     0.17000
H91         H  0.31035476  0.00211884  0.59291010     0.17100
H92         H  0.31021007  0.05864981  0.76456353     0.17000
Zn93       Zn  0.03243724  0.20866036  0.98033054     1.49700
Zn94       Zn  0.03393655  0.29168007  0.98546870     1.49400
Zn95       Zn  0.47098837  0.25289750  0.92863577     1.49100
Zn96       Zn  0.47043452  0.24765993  0.03902920     1.49500
O97         O  0.00169169  0.25003678  0.98349247    -1.83200
O98         O  0.08798455  0.22212065  0.97975454    -0.73800
O99         O  0.02527174  0.32394057  0.93314955    -0.73700
O100        O  0.48044329  0.21278001  0.88618817    -0.73200
O101        O  0.08929601  0.27926185  0.98730387    -0.73800
O102        O  0.02227782  0.18167661  0.92385136    -0.73400
O103        O  0.47946646  0.29791184  0.89462623    -0.74000
O104        O  0.41504745  0.24506688  0.02199087    -0.73400
O105        O  0.02195811  0.31977880  0.03972292    -0.74200
O106        O  0.41571261  0.25184326  0.94707983    -0.73600
O107        O  0.47657715  0.29087126  0.07687924    -0.74000
O108        O  0.48275012  0.20555515  0.07764074    -0.73900
O109        O  0.02383272  0.17719047  0.03460462    -0.73700
C110        C  0.10609986  0.25061270  0.98398839     0.78100
C111        C  0.00179414  0.32358922  0.90072207     0.78500
C112        C  0.00141638  0.18612866  0.88948738     0.77500
C113        C  0.39794173  0.24836073  0.98468574     0.77900
C114        C  0.99821362  0.31708495  0.07263189     0.79000
C115        C  0.00403037  0.17939909  0.07099013     0.78100
Zn116      Zn  0.28461524  0.29072253  0.98358213     1.49700
Zn117      Zn  0.28238601  0.20829095  0.98838806     1.49400
Zn118      Zn  0.21927215  0.25104771  0.04044837     1.49100
Zn119      Zn  0.22149148  0.24744233  0.93093876     1.48300
O120        O  0.25172341  0.24950020  0.98589503    -1.83200
O121        O  0.33984278  0.27732880  0.98026931    -0.73800
O122        O  0.26974372  0.18030746  0.04284729    -0.73700
O123        O  0.23118549  0.29306193  0.07724739    -0.73200
O124        O  0.33804973  0.22029756  0.98996600    -0.73800
O125        O  0.27767918  0.32042653  0.03866040    -0.73400
O126        O  0.22539159  0.20893729  0.08077864    -0.74000
O127        O  0.16592196  0.24682952  0.94787016    -0.73400
O128        O  0.27364534  0.17687894  0.93617362    -0.74200
O129        O  0.16415490  0.25313486  0.02259338    -0.73600
O130        O  0.23096707  0.20402927  0.89538944    -0.74000
O131        O  0.23034109  0.28980732  0.89125175    -0.73900
O132        O  0.27288119  0.32025418  0.92980112    -0.73700
C133        C  0.35643053  0.24867071  0.98500659     0.78100
C134        C  0.24690121  0.18297360  0.07641402     0.78500
C135        C  0.25500502  0.31826331  0.07276034     0.77500
C136        C  0.14759323  0.25028430  0.98489632     0.77900
C137        C  0.25207468  0.17808958  0.90213371     0.79000
C138        C  0.25091888  0.31700085  0.89613888     0.78100
C139        C  0.21987984  0.37658124  0.80061610    -0.11300
C140        C  0.24768082  0.40324734  0.80276811     0.05700
C141        C  0.27629028  0.40130063  0.83592441    -0.06600
C142        C  0.27714248  0.37264096  0.86484196    -0.07400
C143        C  0.24933996  0.34590784  0.86284476    -0.01900
C144        C  0.22022017  0.34826910  0.83029319     0.04900
N145        N  0.19032798  0.32261127  0.82734789     0.67400
H146        H  0.19780713  0.37756755  0.77522332     0.16300
H147        H  0.29945354  0.37181377  0.88990969     0.16000
N148        N  0.30364593  0.42882170  0.84219666     0.75100
O149        O  0.16091305  0.32428697  0.85270938    -0.38300
O150        O  0.19051048  0.30171041  0.79503136    -0.38300
O151        O  0.29219542  0.45867433  0.85109903    -0.39000
O152        O  0.33909673  0.42260478  0.84366525    -0.39100
C153        C  0.27230918  0.09283072  0.84332978    -0.11300
C154        C  0.25005769  0.09590510  0.80466187     0.05700
C155        C  0.22828533  0.12577534  0.79841439    -0.06600
C156        C  0.22887438  0.15165763  0.83100302    -0.07400
C157        C  0.25129679  0.14891531  0.86976975    -0.01900
C158        C  0.27283650  0.11864961  0.87606514     0.04900
N159        N  0.29467241  0.11320590  0.91581265     0.67400
H160        H  0.28876363  0.06969375  0.84860914     0.16300
H161        H  0.21241914  0.17465823  0.82508829     0.16000
N162        N  0.20724860  0.13114156  0.75796235     0.75100
O163        O  0.27769761  0.10398214  0.95203988    -0.38300
O164        O  0.33088647  0.11223928  0.91302220    -0.38300
O165        O  0.17415740  0.14387795  0.75998624    -0.39000
O166        O  0.22377625  0.12791847  0.72004526    -0.39100
C167        C  0.97136127  0.38687448  0.80902256    -0.11300
C168        C  0.99534997  0.41547627  0.81749790     0.05700
C169        C  0.52052914  0.41429211  0.85356334    -0.06600
C170        C  0.52284504  0.38399003  0.87940544    -0.07400
C171        C  0.99967514  0.35454457  0.87066347    -0.01900
C172        C  0.97324586  0.35666552  0.83500581     0.04900
N173        N  0.94841575  0.32831729  0.82400526     0.67400
H174        H  0.95199734  0.38755930  0.78111291     0.16300
H175        H  0.54238737  0.38371731  0.90731887     0.16000
N176        N  0.54295914  0.44393617  0.86582504     0.75100
O177        O  0.91349543  0.32848238  0.83630807    -0.38300
O178        O  0.95956394  0.30641251  0.79573625    -0.38300
O179        O  0.52636964  0.47049531  0.87982730    -0.39000
O180        O  0.57903998  0.44206099  0.86843632    -0.39100
C181        C  0.47601566  0.13284438  0.78556309    -0.11300
C182        C  0.00143483  0.10507707  0.78969564     0.05700
C183        C  0.02748529  0.10506832  0.82568677    -0.06600
C184        C  0.02761215  0.13222078  0.85652802    -0.07400
C185        C  0.00177355  0.15955984  0.85324543    -0.01900
C186        C  0.47613199  0.16001786  0.81649463     0.04900
N187        N  0.45002322  0.18751290  0.81002587     0.67400
H188        H  0.45632480  0.13348580  0.75767423     0.16300
H189        H  0.04752626  0.13122278  0.88417626     0.16000
N190        N  0.05256125  0.07684518  0.83298632     0.75100
O191        O  0.46181591  0.21513452  0.79121417    -0.38300
O192        O  0.41436615  0.18210257  0.81584262    -0.38300
O193        O  0.08806486  0.08238845  0.83843973    -0.39000
O194        O  0.03880989  0.04669280  0.83804747    -0.39100
C195        C  0.39504910  0.03299902  0.68876537    -0.11300
C196        C  0.41471393  0.50286237  0.69423599     0.05700
C197        C  0.39321702  0.47141990  0.69181069    -0.06600
C198        C  0.35281773  0.47183536  0.69161504    -0.07400
C199        C  0.33236687  0.50269504  0.69280167    -0.01900
C200        C  0.35467953  0.03332961  0.68692771     0.04900
N201        N  0.33672574  0.06557480  0.67766743     0.67400
H202        H  0.41056747  0.05714793  0.68364590     0.16300
H203        H  0.33742532  0.44751512  0.68872918     0.16000
N204        N  0.41148774  0.43871228  0.68843953     0.75100
O205        O  0.34895557  0.09275857  0.69610201    -0.38300
O206        O  0.31350797  0.06803440  0.64566770    -0.38300
O207        O  0.39975183  0.41394604  0.71326146    -0.39000
O208        O  0.43243466  0.43236193  0.65450090    -0.39100
C209        C  0.10483718  0.03132230  0.68612608    -0.11300
C210        C  0.08224043  0.50182410  0.69385702     0.05700
C211        C  0.10236461  0.47030020  0.69436795    -0.06600
C212        C  0.14278254  0.47086330  0.69605863    -0.07400
C213        C  0.16453818  0.50182794  0.69482235    -0.01900
C214        C  0.14520429  0.03163545  0.68559248     0.04900
N215        N  0.16490189  0.06348382  0.67435651     0.67400
H216        H  0.09065323  0.05513710  0.67850096     0.16300
H217        H  0.15725130  0.44649573  0.69582123     0.16000
N218        N  0.08282118  0.43743156  0.69157843     0.75100
O219        O  0.15372759  0.09096024  0.69226548    -0.38300
O220        O  0.18578388  0.06558937  0.63920554    -0.38300
O221        O  0.06005685  0.43154165  0.65979844    -0.39000
O222        O  0.09378767  0.41243159  0.71527184    -0.39100
C223        C  0.28354545  0.39633563  0.14354284    -0.11300
C224        C  0.25439798  0.39557605  0.17701050     0.05700
C225        C  0.22603333  0.36909979  0.17615152    -0.06600
C226        C  0.22666406  0.34475805  0.14165382    -0.07400
C227        C  0.25567478  0.34542163  0.10796345    -0.01900
C228        C  0.28450223  0.37167865  0.10930684     0.04900
N229        N  0.31502106  0.37379447  0.07639819     0.67400
H230        H  0.30534557  0.41665027  0.14332487     0.16300
H231        H  0.20446855  0.32476252  0.14187062     0.16000
N232        N  0.19724622  0.36571343  0.21109252     0.75100
O233        O  0.31063072  0.39084372  0.04050879    -0.38300
O234        O  0.34809273  0.36373107  0.08642140    -0.38300
O235        O  0.16213668  0.36357204  0.20118127    -0.39000
O236        O  0.20702757  0.36149573  0.25150176    -0.39100
C237        C  0.23624530  0.13105642  0.18562803    -0.11300
C238        C  0.24574916  0.09828059  0.17023681     0.05700
C239        C  0.25416751  0.09327031  0.12444214    -0.06600
C240        C  0.25420103  0.12122368  0.09462992    -0.07400
C241        C  0.24533919  0.15441568  0.10969642    -0.01900
C242        C  0.23598047  0.15922345  0.15571428     0.04900
N243        N  0.22818011  0.19264868  0.17292305     0.67400
H244        H  0.22978025  0.13477630  0.22112089     0.16300
H245        H  0.26074398  0.11679215  0.05929175     0.16000
N246        N  0.26190735  0.05967004  0.10778587     0.75100
O247        O  0.19410193  0.20046589  0.18312920    -0.38300
O248        O  0.25568071  0.21228917  0.18411244    -0.38300
O249        O  0.23429267  0.03929275  0.09931634    -0.39000
O250        O  0.29548531  0.05252282  0.09465677    -0.39100
C251        C  0.22789234  0.52876904  0.50908219    -0.11300
C252        C  0.24868996  0.00248630  0.53145742     0.05700
C253        C  0.27128135  0.97978076  0.50603568    -0.06600
C254        C  0.27268585  0.98283072  0.45904389    -0.07400
C255        C  0.25122663  0.50789012  0.43695315    -0.01900
C256        C  0.22925775  0.53129585  0.46198527     0.04900
N257        N  0.20983835  0.55863000  0.43997160     0.67400
H258        H  0.21161918  0.54738022  0.52842318     0.16300
H259        H  0.28959587  0.96477805  0.43943728     0.16000
N260        N  0.29076425  0.95219458  0.52748156     0.75100
O261        O  0.17363448  0.55992121  0.44227163    -0.38300
O262        O  0.22523982  0.08256084  0.42406543    -0.38300
O263        O  0.26773022  0.42855682  0.54825560    -0.39000
O264        O  0.32657094  0.94914411  0.52180692    -0.39100
C265        C  0.97174597  0.34171459  0.14430223    -0.11300
C266        C  0.99607648  0.34548848  0.10604648     0.05700
C267        C  0.51909219  0.37656592  0.10074309    -0.06600
C268        C  0.51831399  0.40151276  0.13441124    -0.07400
C269        C  0.99455213  0.39670895  0.17341977    -0.01900
C270        C  0.97084231  0.36696654  0.17780545     0.04900
N271        N  0.94739809  0.36116499  0.21731868     0.67400
H272        H  0.95406457  0.31861339  0.14900115     0.16300
H273        H  0.53615013  0.42458459  0.13037612     0.16000
N274        N  0.54293967  0.38310938  0.06172733     0.75100
O275        O  0.91123969  0.35992595  0.21437962    -0.38300
O276        O  0.96282336  0.35365070  0.25420973    -0.38300
O277        O  0.52868387  0.39650852  0.02707096    -0.39000
O278        O  0.57897176  0.38083743  0.06441359    -0.39100
C279        C  0.48952292  0.12579796  0.17909531    -0.11300
C280        C  0.00807347  0.09490168  0.16761566     0.05700
C281        C  0.02717698  0.09307003  0.12547272    -0.06600
C282        C  0.02598887  0.12089859  0.09498044    -0.07400
C283        C  0.00607357  0.15114305  0.10558827    -0.01900
C284        C  0.48876072  0.15384488  0.14893793     0.04900
N285        N  0.47068974  0.18464560  0.16339683     0.67400
H286        H  0.47550395  0.12779881  0.21181873     0.16300
H287        H  0.04009293  0.11837404  0.06237457     0.16000
N288        N  0.04592805  0.06231562  0.11207995     0.75100
O289        O  0.43447103  0.18599457  0.16491050    -0.38300
O290        O  0.98879838  0.20722362  0.18197090    -0.38300
O291        O  0.52614859  0.03887346  0.09346414    -0.39000
O292        O  0.08217500  0.06129366  0.11182452    -0.39100
C293        C  0.39797279  0.00718750  0.23374843    -0.11300
C294        C  0.41690712  0.49540540  0.27288465     0.05700
C295        C  0.39355118  0.47826713  0.30634192    -0.06600
C296        C  0.35330138  0.48039006  0.30440585    -0.07400
C297        C  0.33476110  0.49754724  0.26913868    -0.01900
C298        C  0.35771160  0.00756266  0.23061631     0.04900
N299        N  0.34197338  0.01435815  0.18701511     0.67400
H300        H  0.41479760  0.01282074  0.20353682     0.16300
H301        H  0.33617764  0.46655979  0.32972277     0.16000
N302        N  0.40934013  0.45651774  0.34057013     0.75100
O303        O  0.35833583  0.03625745  0.16098921    -0.38300
O304        O  0.31643107  0.99457421  0.17126474    -0.38300
O305        O  0.39405311  0.45532551  0.37951119    -0.39000
O306        O  0.43361899  0.43412657  0.33008082    -0.39100
C307        C  0.10424203  0.02476620  0.28082950    -0.11300
C308        C  0.08439810  0.49265958  0.27686843     0.05700
C309        C  0.10596399  0.46207696  0.28080695    -0.06600
C310        C  0.14637820  0.46412582  0.27933602    -0.07400
C311        C  0.16666292  0.49583323  0.27740525    -0.01900
C312        C  0.14455020  0.02676875  0.28268427     0.04900
N313        N  0.16211794  0.05975277  0.29162433     0.67400
H314        H  0.08825097  0.04825175  0.28436327     0.16300
H315        H  0.16196507  0.44049634  0.28289689     0.16000
N316        N  0.08806985  0.42920751  0.29101584     0.75100
O317        O  0.15046934  0.08623330  0.27145172    -0.38300
O318        O  0.18234752  0.06365182  0.32611843    -0.38300
O319        O  0.10108098  0.40225821  0.27335700    -0.39000
O320        O  0.06413651  0.42632670  0.32339658    -0.39100
C321        C  0.47561198  0.98126417  0.45934790    -0.11300
C322        C  0.49939611  0.00629452  0.43797514     0.05700
C323        C  0.02342606  0.52723897  0.46456142    -0.06600
C324        C  0.02380766  0.52269058  0.51150742    -0.07400
C325        C  0.50007195  0.49791136  0.53263431    -0.01900
C326        C  0.47614804  0.97643088  0.50613634     0.04900
N327        N  0.45340928  0.94913293  0.52624488     0.67400
H328        H  0.45749408  0.96449976  0.43924270     0.16300
H329        H  0.04191834  0.53947314  0.53152500     0.16000
N330        N  0.04596737  0.55450103  0.44411926     0.75100
O331        O  0.41719522  0.95057248  0.52634017    -0.38300
O332        O  0.46953790  0.42229458  0.53901235    -0.38300
O333        O  0.02945044  0.08178481  0.43091793    -0.39000
O334        O  0.08219241  0.55378072  0.44519913    -0.39100
C335        C  0.03999674  0.99405279  0.27318639     0.30900
C336        C  0.46094747  0.99721402  0.27346090     0.30900
C337        C  0.02020304  0.00057238  0.31895081    -0.05300
C338        C  0.02310773  0.52170460  0.24346981    -0.06100
C339        C  0.01863117  0.96184690  0.25581491    -0.05900
C340        C  0.48031668  0.00259112  0.31916329    -0.05300
C341        C  0.48310541  0.52417478  0.24416628    -0.06000
C342        C  0.47827690  0.96357822  0.25637495    -0.05900
C343        C  0.46899015  0.50813401  0.36314210    -0.31300
N344        N  0.50042451  0.50848734  0.38962079     0.15200
C345        C  0.03204816  0.50367015  0.36331412    -0.31300
H346        H  0.06115265  0.50146730  0.37533578     0.17100
C347        C  0.47406990  0.55232478  0.21782303    -0.30300
N348        N  0.00654678  0.56535406  0.19900566     0.13900
C349        C  0.03686916  0.54737655  0.21440261    -0.30300
C350        C  0.46473010  0.93929589  0.22656604    -0.30600
N351        N  0.99544110  0.92281343  0.20806994     0.14400
H352        H  0.43521324  0.93574206  0.21640692     0.17000
C353        C  0.02798821  0.93810602  0.22327636    -0.30600
H354        H  0.05648970  0.93383183  0.20933738     0.17000
H355        H  0.06663974  0.55295920  0.20564777     0.17000
H356        H  0.43990797  0.51117085  0.37544758     0.17100
H357        H  0.44572098  0.56250225  0.21255926     0.17000
C358        C  0.21098754  0.49629937  0.27356584     0.30900
C359        C  0.29040411  0.49892010  0.27087783     0.30900
C360        C  0.23094923  0.50149372  0.31881434    -0.05300
C361        C  0.23080527  0.96485552  0.25430185    -0.06100
C362        C  0.22963571  0.52469001  0.24376716    -0.05900
C363        C  0.27106964  0.50335227  0.31759968    -0.05300
C364        C  0.27098599  0.96600607  0.25419123    -0.06000
C365        C  0.26984642  0.52707695  0.24359128    -0.05900
C366        C  0.28231070  0.00820114  0.36123938    -0.31300
N367        N  0.25059886  0.00808319  0.38853798     0.15200
C368        C  0.21895890  0.00396042  0.36297383    -0.31300
H369        H  0.18952901  0.00167972  0.37598216     0.17100
C370        C  0.28370254  0.93937136  0.22790088    -0.30300
N371        N  0.25278777  0.92284490  0.21023493     0.13900
C372        C  0.22065493  0.93908144  0.22473721    -0.30300
C373        C  0.27979923  0.55614198  0.21848773    -0.30600
N374        N  0.24732425  0.56928959  0.20123512     0.14400
H375        H  0.30816202  0.56725813  0.21322105     0.17000
C376        C  0.21668905  0.55010834  0.21572301    -0.30600
H377        H  0.18723684  0.55429641  0.20594385     0.17000
H378        H  0.19215666  0.93440026  0.21159488     0.17000
H379        H  0.31133413  0.01079202  0.37288995     0.17100
H380        H  0.31335087  0.93418757  0.21946554     0.17000
C381        C  0.03801902  0.50348762  0.69676827     0.30900
C382        C  0.45896691  0.50404972  0.69705191     0.30900
C383        C  0.01869480  0.49460907  0.65237456    -0.05300
C384        C  0.01797104  0.97896426  0.73125390    -0.06100
C385        C  0.01975658  0.53842862  0.70870234    -0.05900
C386        C  0.47881515  0.49496079  0.65233286    -0.05300
C387        C  0.47793553  0.97944478  0.73151951    -0.06000
C388        C  0.47905761  0.53877487  0.70911560    -0.05900
C389        C  0.46832534  0.99434596  0.60787816    -0.31300
N390        N  0.50018990  0.99379674  0.58084386     0.15200
C391        C  0.03156227  0.99441644  0.60736305    -0.31300
H392        H  0.06094246  0.99723788  0.59528289     0.17100
C393        C  0.46525037  0.95788844  0.76616380    -0.30300
N394        N  0.99633385  0.94394668  0.78626267     0.13900
C395        C  0.02851354  0.95760977  0.76601435    -0.30300
C396        C  0.46871374  0.56328171  0.74059754    -0.30600
N397        N  0.00064903  0.57860476  0.75746922     0.14400
H398        H  0.44005056  0.56707972  0.75408882     0.17000
C399        C  0.03162326  0.56321020  0.73894098    -0.30600
H400        H  0.06095561  0.56787236  0.74925056     0.17000
H401        H  0.05792544  0.95155481  0.77532236     0.17000
H402        H  0.43926222  0.99772922  0.59614048     0.17100
H403        H  0.43591038  0.95208820  0.77559449     0.17000
C404        C  0.20936777  0.00001126  0.69750767     0.30900
C405        C  0.28870942  0.00076286  0.69585326     0.30900
C406        C  0.22916162  0.00206928  0.65107099    -0.05300
C407        C  0.22860580  0.53017234  0.72368315    -0.06100
C408        C  0.22844361  0.96806789  0.71876428    -0.05900
C409        C  0.26909402  0.00249578  0.65018685    -0.05300
C410        C  0.26876675  0.53021575  0.72329960    -0.06000
C411        C  0.26890358  0.96846532  0.71749793    -0.05900
C412        C  0.28025555  0.50280931  0.60586570    -0.31300
N413        N  0.24852970  0.50258162  0.57987704     0.15200
C414        C  0.21678740  0.50255915  0.60710016    -0.31300
H415        H  0.18756316  0.50177166  0.59571642     0.17100
C416        C  0.28058493  0.55374955  0.75499037    -0.30300
N417        N  0.24911295  0.56903343  0.77277083     0.13900
C418        C  0.21724367  0.55409913  0.75498878    -0.30300
C419        C  0.28043640  0.94446757  0.74867909    -0.30600
N420        N  0.24902593  0.92927874  0.76866128     0.14400
H421        H  0.30983156  0.93941275  0.75758862     0.17000
C422        C  0.21730317  0.94421884  0.75173420    -0.30600
H423        H  0.18844970  0.93964109  0.76479543     0.17000
H424        H  0.18792452  0.55937686  0.76551216     0.17000
H425        H  0.30982778  0.50263723  0.59319953     0.17100
H426        H  0.30974153  0.55886436  0.76524633     0.17000
Zn427      Zn  0.03256162  0.70882212  0.98152345     1.49700
Zn428      Zn  0.03396882  0.79187047  0.98630506     1.49400
Zn429      Zn  0.47099118  0.75327031  0.92974197     1.49100
Zn430      Zn  0.47045198  0.74772788  0.04001868     1.49500
O431        O  0.00178701  0.75017769  0.98457136    -1.83200
O432        O  0.08806725  0.72237227  0.98104236    -0.73800
O433        O  0.02535449  0.82412998  0.93388151    -0.73700
O434        O  0.48031737  0.71314913  0.88732367    -0.73200
O435        O  0.08936488  0.77954423  0.98827007    -0.73800
O436        O  0.02248288  0.68193649  0.92497896    -0.73400
O437        O  0.47951110  0.79830228  0.89575785    -0.74000
O438        O  0.41512122  0.74476556  0.02305064    -0.73400
O439        O  0.02174854  0.81994620  0.04042171    -0.74200
O440        O  0.41575510  0.75220176  0.94824967    -0.73600
O441        O  0.47611182  0.79110246  0.07753183    -0.74000
O442        O  0.48289929  0.70573983  0.07876312    -0.73900
O443        O  0.02389349  0.67720588  0.03571187    -0.73700
C444        C  0.10617347  0.75088516  0.98511968     0.78100
C445        C  0.00180421  0.82376101  0.90152099     0.78500
C446        C  0.00156186  0.68642242  0.89067404     0.77500
C447        C  0.39800523  0.74832946  0.98580906     0.77900
C448        C  0.99801173  0.81723538  0.07333536     0.79000
C449        C  0.00401334  0.67932182  0.07205628     0.78100
Zn450      Zn  0.28469667  0.79055440  0.98418680     1.49700
Zn451      Zn  0.28253168  0.70818547  0.98943086     1.49400
Zn452      Zn  0.21939111  0.75094518  0.04140041     1.49100
Zn453      Zn  0.22149071  0.74718531  0.93203779     1.48300
O454        O  0.25181931  0.74934997  0.98683510    -1.83200
O455        O  0.33988179  0.77716875  0.98126256    -0.73800
O456        O  0.26966970  0.68025154  0.04380645    -0.73700
O457        O  0.23156718  0.79292504  0.07807701    -0.73200
O458        O  0.33817843  0.72016878  0.99121341    -0.73800
O459        O  0.27754959  0.82057449  0.03892831    -0.73400
O460        O  0.22517369  0.70873343  0.08165370    -0.74000
O461        O  0.16594677  0.74702600  0.94893869    -0.73400
O462        O  0.27394381  0.67672196  0.93722673    -0.74200
O463        O  0.16426794  0.75328855  0.02365861    -0.73600
O464        O  0.23064622  0.70360977  0.89706533    -0.74000
O465        O  0.23083954  0.78898388  0.89158878    -0.73900
O466        O  0.27345783  0.81958070  0.92979951    -0.73700
C467        C  0.35650934  0.74855439  0.98615164     0.78100
C468        C  0.24667477  0.68277074  0.07725626     0.78500
C469        C  0.25512796  0.81828996  0.07325181     0.77500
C470        C  0.14766388  0.75053479  0.98598048     0.77900
C471        C  0.25199787  0.67780914  0.90351540     0.79000
C472        C  0.25169298  0.81605216  0.89600743     0.78100
C473        C  0.22135502  0.87503176  0.79954666    -0.11300
C474        C  0.24915233  0.90170904  0.80170614     0.05700
C475        C  0.27792200  0.89963661  0.83467946    -0.06600
C476        C  0.27859786  0.87110732  0.86380989    -0.07400
C477        C  0.25061266  0.84452640  0.86205385    -0.01900
C478        C  0.22170248  0.84672628  0.82923720     0.04900
N479        N  0.19211795  0.82082844  0.82589137     0.67400
H480        H  0.19934629  0.87598282  0.77414245     0.16300
H481        H  0.30089113  0.87029109  0.88886807     0.16000
N482        N  0.30567164  0.92688623  0.84058657     0.75100
O483        O  0.16163947  0.82310695  0.84930991    -0.38300
O484        O  0.19392922  0.79881287  0.79494494    -0.38300
O485        O  0.29470470  0.95675725  0.85020640    -0.39000
O486        O  0.34107806  0.92034795  0.84108212    -0.39100
C487        C  0.27197129  0.59277365  0.84413895    -0.11300
C488        C  0.24968095  0.59610598  0.80553033     0.05700
C489        C  0.22799876  0.62604416  0.79952972    -0.06600
C490        C  0.22863955  0.65172161  0.83235383    -0.07400
C491        C  0.25107795  0.64872733  0.87107694    -0.01900
C492        C  0.27258014  0.61841696  0.87710857     0.04900
N493        N  0.29444685  0.61274585  0.91679232     0.67400
H494        H  0.28834981  0.56959689  0.84918031     0.16300
H495        H  0.21227000  0.67477953  0.82662105     0.16000
N496        N  0.20703484  0.63170843  0.75908330     0.75100
O497        O  0.27737512  0.60441669  0.95331116    -0.38300
O498        O  0.33055259  0.61053497  0.91372296    -0.38300
O499        O  0.17406159  0.64467507  0.76115473    -0.39000
O500        O  0.22355348  0.62851956  0.72115454    -0.39100
C501        C  0.97145572  0.88680206  0.80948753    -0.11300
C502        C  0.99548301  0.91539123  0.81767245     0.05700
C503        C  0.52113331  0.91447124  0.85423250    -0.06600
C504        C  0.52334596  0.88418553  0.88011788    -0.07400
C505        C  0.99970079  0.85464824  0.87130116    -0.01900
C506        C  0.97323814  0.85668925  0.83562860     0.04900
N507        N  0.94834084  0.82833922  0.82483685     0.67400
H508        H  0.95185274  0.88740961  0.78121383     0.16300
H509        H  0.54311685  0.88384474  0.90806350     0.16000
N510        N  0.54380813  0.94402258  0.86627967     0.75100
O511        O  0.91319800  0.82904036  0.83608226    -0.38300
O512        O  0.95979711  0.80583736  0.79757249    -0.38300
O513        O  0.52744937  0.97071834  0.88021277    -0.39000
O514        O  0.57987396  0.94193376  0.86883194    -0.39100
C515        C  0.47496008  0.63266152  0.78746428    -0.11300
C516        C  0.00102327  0.60530117  0.79109352     0.05700
C517        C  0.02749309  0.60548200  0.82667634    -0.06600
C518        C  0.02779568  0.63266834  0.85744116    -0.07400
C519        C  0.00181145  0.65989968  0.85441886    -0.01900
C520        C  0.47518550  0.65992244  0.81826294     0.04900
N521        N  0.44854506  0.68707560  0.81230271     0.67400
H522        H  0.45477989  0.63300682  0.76002563     0.16300
H523        H  0.04800236  0.63179587  0.88481688     0.16000
N524        N  0.05289299  0.57745024  0.83362573     0.75100
O525        O  0.45977424  0.71498929  0.79379409    -0.38300
O526        O  0.41299289  0.68110264  0.81818115    -0.38300
O527        O  0.08848676  0.58322458  0.83797199    -0.39000
O528        O  0.03941306  0.54729454  0.83961441    -0.39100
C529        C  0.39440025  0.53361355  0.68935187    -0.11300
C530        C  0.41539340  0.00228192  0.69390302     0.05700
C531        C  0.39392657  0.97081390  0.69170049    -0.06600
C532        C  0.35354014  0.97121765  0.69126400    -0.07400
C533        C  0.33304626  0.00205773  0.69245119    -0.01900
C534        C  0.35403704  0.53396847  0.68741097     0.04900
N535        N  0.33612536  0.56625110  0.67823946     0.67400
H536        H  0.40995133  0.55777127  0.68448383     0.16300
H537        H  0.33820025  0.94688148  0.68825200     0.16000
N538        N  0.41220676  0.93807260  0.68895743     0.75100
O539        O  0.34834608  0.59338362  0.69680699    -0.38300
O540        O  0.31294417  0.56880019  0.64621518    -0.38300
O541        O  0.40033380  0.91352525  0.71407003    -0.39000
O542        O  0.43339194  0.93142881  0.65532941    -0.39100
C543        C  0.10412602  0.53224740  0.68664048    -0.11300
C544        C  0.08286422  0.00098631  0.69356387     0.05700
C545        C  0.10291956  0.96942478  0.69448085    -0.06600
C546        C  0.14334496  0.96992192  0.69636721    -0.07400
C547        C  0.16517390  0.00084381  0.69483213    -0.01900
C548        C  0.14449996  0.53265554  0.68602064     0.04900
N549        N  0.16412486  0.56463347  0.67522123     0.67400
H550        H  0.08985422  0.55607531  0.67928358     0.16300
H551        H  0.15775138  0.94553815  0.69639104     0.16000
N552        N  0.08330723  0.93657844  0.69184076     0.75100
O553        O  0.15257745  0.59203957  0.69299295    -0.38300
O554        O  0.18578799  0.56685983  0.64072514    -0.38300
O555        O  0.06057985  0.93062363  0.66004310    -0.39000
O556        O  0.09416389  0.91163897  0.71571862    -0.39100
C557        C  0.28371163  0.89633848  0.14393842    -0.11300
C558        C  0.25415816  0.89600680  0.17691381     0.05700
C559        C  0.22547438  0.86979847  0.17572604    -0.06600
C560        C  0.22626901  0.84531135  0.14142503    -0.07400
C561        C  0.25571972  0.84553789  0.10829264    -0.01900
C562        C  0.28483545  0.87150305  0.10995133     0.04900
N563        N  0.31588380  0.87304997  0.07770666     0.67400
H564        H  0.30580188  0.91645140  0.14393999     0.16300
H565        H  0.20379400  0.82553968  0.14133305     0.16000
N566        N  0.19614269  0.86684098  0.21009632     0.75100
O567        O  0.31281621  0.89085577  0.04220853    -0.38300
O568        O  0.34827945  0.86160819  0.08811134    -0.38300
O569        O  0.16118829  0.86491278  0.19945213    -0.39000
O570        O  0.20525366  0.86273088  0.25075360    -0.39100
C571        C  0.23475665  0.63002447  0.18574948    -0.11300
C572        C  0.24574324  0.59761449  0.17041550     0.05700
C573        C  0.25540099  0.59307397  0.12485367    -0.06600
C574        C  0.25527164  0.62115835  0.09528663    -0.07400
C575        C  0.24498626  0.65402640  0.11030411    -0.01900
C576        C  0.23424170  0.65831040  0.15603715     0.04900
N577        N  0.22453618  0.69132297  0.17320080     0.67400
H578        H  0.22721787  0.63336296  0.22102211     0.16300
H579        H  0.26280920  0.61704670  0.06014523     0.16000
N580        N  0.26441550  0.55977472  0.10809001     0.75100
O581        O  0.18967686  0.69871839  0.17927510    -0.38300
O582        O  0.25052861  0.71075751  0.18873887    -0.38300
O583        O  0.23752640  0.53885762  0.09878106    -0.39000
O584        O  0.29832291  0.55364616  0.09516081    -0.39100
C585        C  0.22692455  0.02721963  0.50924188    -0.11300
C586        C  0.24842719  0.50332597  0.53158469     0.05700
C587        C  0.27001612  0.47969161  0.50648360    -0.06600
C588        C  0.27171733  0.48246664  0.45947088    -0.07400
C589        C  0.25094342  0.00753837  0.43681948    -0.01900
C590        C  0.22799648  0.02999444  0.46217744     0.04900
N591        N  0.20727164  0.05669093  0.44053556     0.67400
H592        H  0.20985060  0.04518089  0.52882989     0.16300
H593        H  0.28779457  0.46373887  0.44012056     0.16000
N594        N  0.28808152  0.45148005  0.52829426     0.75100
O595        O  0.17101123  0.05659731  0.44291259    -0.38300
O596        O  0.22900923  0.58372665  0.42325564    -0.38300
O597        O  0.27162492  0.92891059  0.54833210    -0.39000
O598        O  0.32385101  0.44751235  0.52370175    -0.39100
C599        C  0.97183800  0.84182699  0.14514034    -0.11300
C600        C  0.99567814  0.84576592  0.10649565     0.05700
C601        C  0.51697402  0.87759413  0.09994392    -0.06600
C602        C  0.51631125  0.90260064  0.13352499    -0.07400
C603        C  0.99395718  0.89729223  0.17336413    -0.01900
C604        C  0.97081607  0.86726447  0.17837834     0.04900
N605        N  0.94787355  0.86139859  0.21826251     0.67400
H606        H  0.95465416  0.81849625  0.15032664     0.16300
H607        H  0.53341853  0.92603971  0.12890241     0.16000
N608        N  0.53944605  0.88465290  0.05996504     0.75100
O609        O  0.91166338  0.86056530  0.21602419    -0.38300
O610        O  0.96372866  0.85336517  0.25470137    -0.38300
O611        O  0.52330101  0.89573725  0.02510112    -0.39000
O612        O  0.57568473  0.88514891  0.06165242    -0.39100
C613        C  0.48812616  0.62492579  0.17906206    -0.11300
C614        C  0.00801592  0.59445297  0.16831934     0.05700
C615        C  0.02836711  0.59334739  0.12688143    -0.06600
C616        C  0.02718640  0.62130832  0.09657140    -0.07400
C617        C  0.00595477  0.65094778  0.10656375    -0.01900
C618        C  0.48730173  0.65310698  0.14912539     0.04900
N619        N  0.46734225  0.68312443  0.16292996     0.67400
H620        H  0.47298021  0.62634010  0.21117073     0.16300
H621        H  0.04235129  0.61933226  0.06452625     0.16000
N622        N  0.04840659  0.56315510  0.11388961     0.75100
O623        O  0.43109110  0.68336143  0.16194944    -0.38300
O624        O  0.98365671  0.70589395  0.18298511    -0.38300
O625        O  0.53005203  0.53916840  0.09564958    -0.39000
O626        O  0.08469757  0.56330652  0.11376005    -0.39100
C627        C  0.39826814  0.50635800  0.23381356    -0.11300
C628        C  0.41660359  0.99620460  0.27282946     0.05700
C629        C  0.39325361  0.97893211  0.30617847    -0.06600
C630        C  0.35300855  0.98095570  0.30417948    -0.07400
C631        C  0.33446762  0.99815123  0.26895736    -0.01900
C632        C  0.35800901  0.50686691  0.23075510     0.04900
N633        N  0.34228172  0.51377461  0.18718707     0.67400
H634        H  0.41508426  0.51191804  0.20357619     0.16300
H635        H  0.33589687  0.96699746  0.32939284     0.16000
N636        N  0.40904621  0.95712000  0.34033254     0.75100
O637        O  0.35876912  0.53562341  0.16119327    -0.38300
O638        O  0.31664527  0.49410501  0.17140567    -0.38300
O639        O  0.39378218  0.95589128  0.37928436    -0.39000
O640        O  0.43322287  0.93466864  0.32973907    -0.39100
C641        C  0.10449312  0.52416114  0.28121118    -0.11300
C642        C  0.08414086  0.99327601  0.27634882     0.05700
C643        C  0.10569641  0.96267791  0.28016951    -0.06600
C644        C  0.14610926  0.96472386  0.27875665    -0.07400
C645        C  0.16639428  0.99643290  0.27698832    -0.01900
C646        C  0.14480798  0.52619048  0.28297039     0.04900
N647        N  0.16235990  0.55924788  0.29155316     0.67400
H648        H  0.08849219  0.54765003  0.28467594     0.16300
H649        H  0.16168406  0.94109293  0.28226571     0.16000
N650        N  0.08780142  0.92978687  0.29024200     0.75100
O651        O  0.15052554  0.58562777  0.27131137    -0.38300
O652        O  0.18287391  0.56332560  0.32577848    -0.38300
O653        O  0.10081230  0.90288159  0.27246625    -0.39000
O654        O  0.06387610  0.92682711  0.32262105    -0.39100
C655        C  0.47559461  0.48146149  0.45950586    -0.11300
C656        C  0.49935128  0.50647443  0.43804421     0.05700
C657        C  0.02357989  0.02741198  0.46421816    -0.06600
C658        C  0.02427003  0.02249950  0.51109976    -0.07400
C659        C  0.50057591  0.99714064  0.53249124    -0.01900
C660        C  0.47594447  0.47689099  0.50633887     0.04900
N661        N  0.45340827  0.44950697  0.52656551     0.67400
H662        H  0.45769199  0.46449267  0.43945123     0.16300
H663        H  0.04248832  0.03917936  0.53121151     0.16000
N664        N  0.04589656  0.05488415  0.44392694     0.75100
O665        O  0.41717328  0.45038258  0.52588952    -0.38300
O666        O  0.46918587  0.92147832  0.53761084    -0.38300
O667        O  0.02980172  0.58164683  0.43148975    -0.39000
O668        O  0.08212406  0.05453493  0.44525926    -0.39100
C669        C  0.54029484  0.49383956  0.27337686     0.30900
C670        C  0.96118188  0.49592834  0.27391068     0.30900
C671        C  0.52043151  0.50022630  0.31911973    -0.05300
C672        C  0.52302397  0.02278269  0.24314991    -0.06100
C673        C  0.51897749  0.46167613  0.25577595    -0.05900
C674        C  0.98048142  0.50167433  0.31957608    -0.05300
C675        C  0.98275480  0.02430012  0.24397117    -0.06000
C676        C  0.97875008  0.46228442  0.25716433    -0.05900
C677        C  0.96882052  0.00842358  0.36311978    -0.31300
N678        N  0.00031211  0.00873347  0.38952251     0.15200
C679        C  0.53193642  0.00404639  0.36282445    -0.31300
H680        H  0.56107929  0.00163426  0.37477816     0.17100
C681        C  0.97370978  0.05235581  0.21745738    -0.30300
N682        N  0.50676986  0.06650624  0.19873240     0.13900
C683        C  0.53696387  0.04832398  0.21401326    -0.30300
C684        C  0.96542402  0.43786192  0.22740772    -0.30600
N685        N  0.49598016  0.42280498  0.20762980     0.14400
H686        H  0.93593558  0.43420850  0.21711475     0.17000
C687        C  0.52847653  0.43798921  0.22320812    -0.30600
H688        H  0.55703245  0.43367628  0.20958239     0.17000
H689        H  0.56674305  0.05362044  0.20502074     0.17000
H690        H  0.93979084  0.01138537  0.37549932     0.17100
H691        H  0.94536833  0.06255338  0.21217348     0.17000
C692        C  0.71064825  0.99619246  0.27343262     0.30900
C693        C  0.79004390  0.99881522  0.27059244     0.30900
C694        C  0.73065898  0.00186457  0.31855092    -0.05300
C695        C  0.73090265  0.46341893  0.25587855    -0.06100
C696        C  0.72922910  0.02425893  0.24308821    -0.05900
C697        C  0.77076848  0.00375852  0.31724472    -0.05300
C698        C  0.77112957  0.46453633  0.25562887    -0.06000
C699        C  0.76943236  0.02665337  0.24277423    -0.05900
C700        C  0.78274010  0.50863457  0.36116267    -0.31300
N701        N  0.75107806  0.50900262  0.38851322     0.15200
C702        C  0.71938336  0.50457853  0.36312726    -0.31300
H703        H  0.69003093  0.50242112  0.37625785     0.17100
C704        C  0.78373653  0.43799342  0.22909305    -0.30300
N705        N  0.75281058  0.42150325  0.21146965     0.13900
C706        C  0.72071843  0.43774158  0.22611458    -0.30300
C707        C  0.77928806  0.05550257  0.21719713    -0.30600
N708        N  0.74678185  0.06848163  0.19981068     0.14400
H709        H  0.80767733  0.06668615  0.21179699     0.17000
C710        C  0.71617269  0.04944929  0.21474928    -0.30600
H711        H  0.68672514  0.05359685  0.20515829     0.17000
H712        H  0.69230582  0.43322835  0.21286166     0.17000
H713        H  0.81183857  0.51111161  0.37274271     0.17100
H714        H  0.81341490  0.43293551  0.22030187     0.17000
C715        C  0.53864655  0.00302118  0.69628917     0.30900
C716        C  0.95962716  0.00325951  0.69672585     0.30900
C717        C  0.51937663  0.99369946  0.65197157    -0.05300
C718        C  0.51737597  0.47963259  0.73124857    -0.06100
C719        C  0.52044531  0.03813967  0.70756122    -0.05900
C720        C  0.97947849  0.99387501  0.65213943    -0.05300
C721        C  0.97738521  0.47944843  0.73172334    -0.06000
C722        C  0.97973856  0.03803691  0.70842927    -0.05900
C723        C  0.96762098  0.49506858  0.60834233    -0.31300
N724        N  0.99950909  0.49452594  0.58131700     0.15200
C725        C  0.53092427  0.49533908  0.60759086    -0.31300
H726        H  0.56033296  0.49802363  0.59551590     0.17100
C727        C  0.96490411  0.45763773  0.76611795    -0.30300
N728        N  0.49582586  0.44436780  0.78600876     0.13900
C729        C  0.52808401  0.45814859  0.76586762    -0.30300
C730        C  0.96934142  0.06273849  0.73960735    -0.30600
N731        N  0.50123218  0.07871015  0.75575992     0.14400
H732        H  0.94066484  0.06661039  0.75302168     0.17000
C733        C  0.53225429  0.06315174  0.73755585    -0.30600
H734        H  0.56149659  0.06778626  0.74805185     0.17000
H735        H  0.55693050  0.45223610  0.77495286     0.17000
H736        H  0.93854756  0.49824004  0.59659727     0.17100
H737        H  0.93508962  0.45167587  0.77579567     0.17000
C738        C  0.70869824  0.50066237  0.69728722     0.30900
C739        C  0.78800664  0.50112447  0.69603538     0.30900
C740        C  0.72864679  0.50317464  0.65096364    -0.05300
C741        C  0.72926936  0.02960121  0.72315444    -0.06100
C742        C  0.72752089  0.46839795  0.71805201    -0.05900
C743        C  0.76857477  0.50341969  0.65028751    -0.05300
C744        C  0.76943776  0.02976014  0.72262743    -0.06000
C745        C  0.76803105  0.46863790  0.71700242    -0.05900
C746        C  0.78067392  0.00188674  0.60553167    -0.31300
N747        N  0.74888522  0.00145493  0.57964432     0.15200
C748        C  0.71720965  0.00125640  0.60701105    -0.31300
H749        H  0.68799158  0.00041632  0.59577166     0.17100
C750        C  0.78124280  0.05363516  0.75392832    -0.30300
N751        N  0.74974700  0.06900153  0.77157195     0.13900
C752        C  0.71790423  0.05379013  0.75411809    -0.30300
C753        C  0.77926945  0.44515631  0.74904838    -0.30600
N754        N  0.74772751  0.43033199  0.76917306     0.14400
H755        H  0.80862420  0.44027316  0.75848312     0.17000
C756        C  0.71617772  0.44514161  0.75167700    -0.30600
H757        H  0.68730055  0.44096455  0.76478643     0.17000
H758        H  0.68854870  0.05904061  0.76470279     0.17000
H759        H  0.81027341  0.00204850  0.59275685     0.17100
H760        H  0.81036144  0.05889448  0.76404410     0.17000
Zn761      Zn  0.53241168  0.20886421  0.98016758     1.49700
Zn762      Zn  0.53406365  0.29192352  0.98510917     1.49400
Zn763      Zn  0.97094640  0.25266515  0.92882691     1.49100
Zn764      Zn  0.97031287  0.24733219  0.03919348     1.49500
O765        O  0.50175689  0.25029862  0.98328099    -1.83200
O766        O  0.58794515  0.22225097  0.97971344    -0.73800
O767        O  0.52538534  0.32415014  0.93272895    -0.73700
O768        O  0.98033481  0.21250097  0.88641395    -0.73200
O769        O  0.58940559  0.27941615  0.98699713    -0.73800
O770        O  0.52229225  0.18188601  0.92367190    -0.73400
O771        O  0.97954388  0.29765133  0.89480109    -0.74000
O772        O  0.91495823  0.24488395  0.02213188    -0.73400
O773        O  0.52214803  0.32012249  0.03930472    -0.74200
O774        O  0.91565566  0.25175546  0.94723793    -0.73600
O775        O  0.97642815  0.29042597  0.07722425    -0.74000
O776        O  0.98250388  0.20514740  0.07764662    -0.73900
O777        O  0.52381708  0.17742374  0.03445754    -0.73700
C778        C  0.60612772  0.25071368  0.98386588     0.78100
C779        C  0.50178542  0.32382243  0.90042053     0.78500
C780        C  0.50148489  0.18638397  0.88927266     0.77500
C781        C  0.89787158  0.24827980  0.98483656     0.77900
C782        C  0.49840526  0.31750283  0.07222425     0.79000
C783        C  0.50418509  0.17974625  0.07094855     0.78100
Zn784      Zn  0.78448088  0.29061518  0.98389119     1.49700
Zn785      Zn  0.78242150  0.20815169  0.98831909     1.49400
Zn786      Zn  0.71919320  0.25052299  0.04060648     1.49100
Zn787      Zn  0.72152833  0.24740116  0.93103210     1.48300
O788        O  0.75168665  0.24931492  0.98603804    -1.83200
O789        O  0.83975774  0.27727636  0.98058258    -0.73800
O790        O  0.76984353  0.17988764  0.04255400    -0.73700
O791        O  0.73116815  0.29234561  0.07785808    -0.73200
O792        O  0.83801471  0.22021606  0.98997502    -0.73800
O793        O  0.77737733  0.32006504  0.03918992    -0.73400
O794        O  0.72511468  0.20804393  0.08043848    -0.74000
O795        O  0.66597158  0.24691025  0.94785942    -0.73400
O796        O  0.77381750  0.17695366  0.93589415    -0.74200
O797        O  0.66411353  0.25287446  0.02263725    -0.73600
O798        O  0.73097010  0.20407728  0.89533849    -0.74000
O799        O  0.73046514  0.28976407  0.89143346    -0.73900
O800        O  0.77279403  0.32031632  0.93013872    -0.73700
C801        C  0.85636729  0.24860995  0.98516211     0.78100
C802        C  0.74679934  0.18219809  0.07599061     0.78500
C803        C  0.75484345  0.31766718  0.07340477     0.77500
C804        C  0.64760622  0.25026765  0.98487450     0.77900
C805        C  0.75219550  0.17819444  0.90190727     0.79000
C806        C  0.75093696  0.31700722  0.89638128     0.78100
C807        C  0.71988688  0.37632001  0.80055272    -0.11300
C808        C  0.74757564  0.40307942  0.80268387     0.05700
C809        C  0.77611959  0.40129452  0.83594364    -0.06600
C810        C  0.77700055  0.37271533  0.86501898    -0.07400
C811        C  0.74932876  0.34587497  0.86301015    -0.01900
C812        C  0.72030169  0.34805987  0.83031497     0.04900
N813        N  0.69061325  0.32222707  0.82723107     0.67400
H814        H  0.69790736  0.37716110  0.77507969     0.16300
H815        H  0.79923621  0.37201528  0.89016585     0.16000
N816        N  0.80340917  0.42888112  0.84212191     0.75100
O817        O  0.66082962  0.32400987  0.85196639    -0.38300
O818        O  0.69142671  0.30095589  0.79534581    -0.38300
O819        O  0.79188848  0.45874865  0.85080566    -0.39000
O820        O  0.83887353  0.42273300  0.84365961    -0.39100
C821        C  0.77270779  0.09319148  0.84265279    -0.11300
C822        C  0.75027149  0.09624307  0.80413107     0.05700
C823        C  0.72832306  0.12603228  0.79810650    -0.06600
C824        C  0.72891341  0.15185429  0.83076947    -0.07400
C825        C  0.75148834  0.14911601  0.86941209    -0.01900
C826        C  0.77322381  0.11893939  0.87547647     0.04900
N827        N  0.79522773  0.11349442  0.91509507     0.67400
H828        H  0.78928701  0.07011761  0.84777240     0.16300
H829        H  0.71230974  0.17478740  0.82502827     0.16000
N830        N  0.70706408  0.13137223  0.75781817     0.75100
O831        O  0.77840306  0.10423873  0.95140230    -0.38300
O832        O  0.83143279  0.11252499  0.91209587    -0.38300
O833        O  0.67380559  0.14374746  0.76013181    -0.39000
O834        O  0.72350403  0.12851094  0.71979116    -0.39100
C835        C  0.47145195  0.38692322  0.80844054    -0.11300
C836        C  0.49512301  0.41567776  0.81717246     0.05700
C837        C  0.02103667  0.41390533  0.85360974    -0.06600
C838        C  0.02326358  0.38359148  0.87944358    -0.07400
C839        C  0.49959259  0.35477826  0.87036612    -0.01900
C840        C  0.47340099  0.35672754  0.83444173     0.04900
N841        N  0.44891910  0.32820721  0.82316934     0.67400
H842        H  0.45228460  0.38748998  0.78029548     0.16300
H843        H  0.04301751  0.38317945  0.90712601     0.16000
N844        N  0.04387799  0.44336662  0.86561141     0.75100
O845        O  0.41391613  0.32809318  0.83515817    -0.38300
O846        O  0.46046986  0.30641397  0.79497369    -0.38300
O847        O  0.02768944  0.47003562  0.87990555    -0.39000
O848        O  0.07995902  0.44118804  0.86778651    -0.39100
C849        C  0.97591140  0.13246994  0.78588837    -0.11300
C850        C  0.50147673  0.10540768  0.78938981     0.05700
C851        C  0.52747453  0.10532383  0.82543058    -0.06600
C852        C  0.52762211  0.13245634  0.85630296    -0.07400
C853        C  0.50184482  0.15984119  0.85300142    -0.01900
C854        C  0.97601189  0.15966761  0.81678479     0.04900
N855        N  0.94984634  0.18712023  0.81032315     0.67400
H856        H  0.95617612  0.13306341  0.75802166     0.16300
H857        H  0.54748908  0.13140488  0.88398402     0.16000
N858        N  0.55246527  0.07704127  0.83275045     0.75100
O859        O  0.96158906  0.21476659  0.79153373    -0.38300
O860        O  0.91419598  0.18164273  0.81609710    -0.38300
O861        O  0.58796721  0.08250748  0.83831823    -0.39000
O862        O  0.53863160  0.04690935  0.83771658    -0.39100
C863        C  0.89512456  0.03287894  0.68867518    -0.11300
C864        C  0.91472400  0.50262367  0.69463110     0.05700
C865        C  0.89325294  0.47117047  0.69215373    -0.06600
C866        C  0.85285579  0.47156230  0.69175864    -0.07400
C867        C  0.83235953  0.50240190  0.69288932    -0.01900
C868        C  0.85476378  0.03328246  0.68673254     0.04900
N869        N  0.83690452  0.06553969  0.67726722     0.67400
H870        H  0.91071244  0.05699814  0.68359982     0.16300
H871        H  0.83750983  0.44722578  0.68876924     0.16000
N872        N  0.91154851  0.43846317  0.68897479     0.75100
O873        O  0.84925945  0.09278022  0.69545430    -0.38300
O874        O  0.81359728  0.06790959  0.64534435    -0.38300
O875        O  0.89973673  0.41373783  0.71382108    -0.39000
O876        O  0.93265490  0.43206555  0.65518848    -0.39100
C877        C  0.60487232  0.03150993  0.68603271    -0.11300
C878        C  0.58220840  0.50186892  0.69364028     0.05700
C879        C  0.60221883  0.47028119  0.69411891    -0.06600
C880        C  0.64263884  0.47071257  0.69580859    -0.07400
C881        C  0.66451545  0.50160884  0.69453349    -0.01900
C882        C  0.64523916  0.03180000  0.68550342     0.04900
N883        N  0.66495455  0.06362300  0.67416007     0.67400
H884        H  0.59070505  0.05531905  0.67830603     0.16300
H885        H  0.65700311  0.44629660  0.69558228     0.16000
N886        N  0.58255135  0.43747462  0.69129033     0.75100
O887        O  0.65370328  0.09116580  0.69182595    -0.38300
O888        O  0.68605494  0.06559970  0.63917742    -0.38300
O889        O  0.55989858  0.43163206  0.65938684    -0.39000
O890        O  0.59334747  0.41245235  0.71505952    -0.39100
C891        C  0.78347183  0.39545391  0.14466347    -0.11300
C892        C  0.75411237  0.39484163  0.17788158     0.05700
C893        C  0.72556545  0.36852392  0.17670805    -0.06600
C894        C  0.72626047  0.34420141  0.14216938    -0.07400
C895        C  0.75548480  0.34473801  0.10873508    -0.01900
C896        C  0.78447825  0.37082835  0.11039309     0.04900
N897        N  0.81524473  0.37278640  0.07779121     0.67400
H898        H  0.80542290  0.41563672  0.14464971     0.16300
H899        H  0.70392082  0.32433655  0.14212161     0.16000
N900        N  0.69649783  0.36528406  0.21134847     0.75100
O901        O  0.81118330  0.38978057  0.04179205    -0.38300
O902        O  0.84821363  0.36271361  0.08823584    -0.38300
O903        O  0.66145890  0.36339176  0.20106512    -0.39000
O904        O  0.70593255  0.36096076  0.25186020    -0.39100
C905        C  0.73357571  0.12904189  0.18402801    -0.11300
C906        C  0.74512732  0.09674915  0.16887826     0.05700
C907        C  0.75588564  0.09242179  0.12357473    -0.06600
C908        C  0.75619902  0.12063371  0.09413832    -0.07400
C909        C  0.74524201  0.15337663  0.10899009    -0.01900
C910        C  0.73358486  0.15744117  0.15447400     0.04900
N911        N  0.72367059  0.19039874  0.17165980     0.67400
H912        H  0.72540314  0.13225386  0.21914992     0.16300
H913        H  0.76445248  0.11668562  0.05916899     0.16000
N914        N  0.76550068  0.05920842  0.10691004     0.75100
O915        O  0.68891655  0.19695819  0.18014664    -0.38300
O916        O  0.74983244  0.21083925  0.18455814    -0.38300
O917        O  0.73927962  0.03670967  0.10174886    -0.39000
O918        O  0.79874603  0.05417892  0.09089772    -0.39100
C919        C  0.72827040  0.52960029  0.50900404    -0.11300
C920        C  0.74863439  0.00246850  0.53133534     0.05700
C921        C  0.77139127  0.97992588  0.50585396    -0.06600
C922        C  0.77295263  0.98317741  0.45887848    -0.07400
C923        C  0.75142844  0.50871144  0.43678681    -0.01900
C924        C  0.72959224  0.53216706  0.46190038     0.04900
N925        N  0.71021884  0.55955642  0.43995808     0.67400
H926        H  0.71207932  0.54823376  0.52840003     0.16300
H927        H  0.78996730  0.96523715  0.43922400     0.16000
N928        N  0.79088192  0.95229118  0.52720687     0.75100
O929        O  0.67397072  0.56043924  0.44138144    -0.38300
O930        O  0.72501429  0.08259645  0.42376971    -0.38300
O931        O  0.76752947  0.42915982  0.54791413    -0.39000
O932        O  0.82656202  0.94886017  0.52084022    -0.39100
C933        C  0.47158253  0.34245607  0.14351908    -0.11300
C934        C  0.49630155  0.34596710  0.10556888     0.05700
C935        C  0.01852200  0.37626886  0.10101215    -0.06600
C936        C  0.01784105  0.40113678  0.13477581    -0.07400
C937        C  0.49462380  0.39733955  0.17277438    -0.01900
C938        C  0.47059357  0.36778012  0.17692621     0.04900
N939        N  0.44669469  0.36222627  0.21612055     0.67400
H940        H  0.45361815  0.31950956  0.14804817     0.16300
H941        H  0.03540348  0.42435954  0.13058664     0.16000
N942        N  0.04186804  0.38309462  0.06166157     0.75100
O943        O  0.41056852  0.36150932  0.21270016    -0.38300
O944        O  0.46162685  0.35434324  0.25316961    -0.38300
O945        O  0.02694078  0.39592390  0.02704487    -0.39000
O946        O  0.07799764  0.38163177  0.06392853    -0.39100
C947        C  0.98880173  0.12511070  0.17875326    -0.11300
C948        C  0.50843625  0.09543072  0.16783991     0.05700
C949        C  0.52713409  0.09337588  0.12547839    -0.06600
C950        C  0.52587774  0.12113977  0.09488674    -0.07400
C951        C  0.50632958  0.15155303  0.10562856    -0.01900
C952        C  0.98805622  0.15320513  0.14867801     0.04900
N953        N  0.96949190  0.18380599  0.16298966     0.67400
H954        H  0.97447403  0.12694992  0.21131270     0.16300
H955        H  0.53964272  0.11844058  0.06211261     0.16000
N956        N  0.54551811  0.06246587  0.11199303     0.75100
O957        O  0.93325835  0.18500243  0.16335671    -0.38300
O958        O  0.49057126  0.20816598  0.18136884    -0.38300
O959        O  0.02679475  0.03843768  0.09383038    -0.39000
O960        O  0.58173864  0.06106635  0.11189083    -0.39100
C961        C  0.89794525  0.00635849  0.23366584    -0.11300
C962        C  0.91682603  0.49479588  0.27318715     0.05700
C963        C  0.89339694  0.47787860  0.30676867    -0.06600
C964        C  0.85315014  0.48001286  0.30468785    -0.07400
C965        C  0.83469191  0.49692253  0.26915169    -0.01900
C966        C  0.85768141  0.00666971  0.23047110     0.04900
N967        N  0.84199466  0.01314146  0.18675634     0.67400
H968        H  0.91478916  0.01185119  0.20343574     0.16300
H969        H  0.83594780  0.46640694  0.33014467     0.16000
N970        N  0.90909840  0.45631421  0.34125907     0.75100
O971        O  0.85841619  0.03481544  0.16045757    -0.38300
O972        O  0.81639655  0.99329413  0.17125145    -0.38300
O973        O  0.89363583  0.45523267  0.38011177    -0.39000
O974        O  0.93356681  0.43399841  0.33111299    -0.39100
C975        C  0.60440628  0.02456731  0.28089580    -0.11300
C976        C  0.58440518  0.49294332  0.27668396     0.05700
C977        C  0.60574389  0.46226558  0.28100264    -0.06600
C978        C  0.64615947  0.46409272  0.27968422    -0.07400
C979        C  0.66664090  0.49569415  0.27757697    -0.01900
C980        C  0.64470607  0.02631845  0.28286589     0.04900
N981        N  0.66250642  0.05921258  0.29170612     0.67400
H982        H  0.58860431  0.04815853  0.28440025     0.16300
H983        H  0.66157150  0.44039182  0.28347065     0.16000
N984        N  0.58758702  0.42953103  0.29135565     0.75100
O985        O  0.65160256  0.08558207  0.27068311    -0.38300
O986        O  0.68155312  0.06333224  0.32707818    -0.38300
O987        O  0.60045076  0.40243741  0.27393086    -0.39000
O988        O  0.56354143  0.42690810  0.32365159    -0.39100
C989        C  0.97561155  0.98144958  0.45930110    -0.11300
C990        C  0.99934178  0.00651996  0.43793882     0.05700
C991        C  0.52338945  0.52759170  0.46426422    -0.06600
C992        C  0.52377990  0.52303728  0.51120699    -0.07400
C993        C  0.99997654  0.49766562  0.53295942    -0.01900
C994        C  0.97616480  0.97659691  0.50607424     0.04900
N995        N  0.95346604  0.94926728  0.52616892     0.67400
H996        H  0.95751504  0.96464840  0.43918110     0.16300
H997        H  0.54182670  0.53988095  0.53124900     0.16000
N998        N  0.54585257  0.55490523  0.44383039     0.75100
O999        O  0.91724705  0.95062097  0.52616106    -0.38300
O1000       O  0.96892880  0.42211701  0.53921294    -0.38300
O1001       O  0.52960185  0.08129428  0.43029159    -0.39000
O1002       O  0.58208677  0.55398168  0.44426683    -0.39100
C1003       C  0.53997864  0.99423439  0.27307883     0.30900
C1004       C  0.96092811  0.99673496  0.27353753     0.30900
C1005       C  0.52021724  0.00056901  0.31891464    -0.05300
C1006       C  0.52325144  0.52226109  0.24328327    -0.06100
C1007       C  0.51847472  0.96222134  0.25537592    -0.05900
C1008       C  0.98028338  0.00244088  0.31918154    -0.05300
C1009       C  0.98296108  0.52353734  0.24438734    -0.06000
C1010       C  0.97841417  0.96306116  0.25679955    -0.05900
C1011       C  0.96896502  0.50777837  0.36345214    -0.31300
N1012       N  0.00039640  0.50817103  0.38992304     0.15200
C1013       C  0.53206909  0.50398758  0.36301807    -0.31300
H1014       H  0.56119577  0.50176154  0.37505343     0.17100
C1015       C  0.97382256  0.55159180  0.21792620    -0.30300
N1016       N  0.50684566  0.56604360  0.19898281     0.13900
C1017       C  0.53710389  0.54795440  0.21431062    -0.30300
C1018       C  0.96497038  0.93858306  0.22719801    -0.30600
N1019       N  0.49512997  0.92350786  0.20730921     0.14400
H1020       H  0.93549054  0.93491326  0.21702976     0.17000
C1021       C  0.52774179  0.93860938  0.22263761    -0.30600
H1022       H  0.55621553  0.93426849  0.20871632     0.17000
H1023       H  0.56688070  0.55346445  0.20554650     0.17000
H1024       H  0.93985821  0.51082270  0.37577700     0.17100
H1025       H  0.94543578  0.56166832  0.21264535     0.17000
C1026       C  0.71094562  0.49595095  0.27368985     0.30900
C1027       C  0.79033624  0.49840194  0.27083190     0.30900
C1028       C  0.73097065  0.50185053  0.31875089    -0.05300
C1029       C  0.73068730  0.96382236  0.25531292    -0.06100
C1030       C  0.72958628  0.52381605  0.24308534    -0.05900
C1031       C  0.77108130  0.50363947  0.31743746    -0.05300
C1032       C  0.77090538  0.96500118  0.25508550    -0.06000
C1033       C  0.76979272  0.52612422  0.24274597    -0.05900
C1034       C  0.78242580  0.00844966  0.36102474    -0.31300
N1035       N  0.75076565  0.00845085  0.38842046     0.15200
C1036       C  0.71909142  0.00412671  0.36297360    -0.31300
H1037       H  0.68970003  0.00168188  0.37610303     0.17100
C1038       C  0.78358007  0.93847216  0.22855897    -0.30300
N1039       N  0.75265446  0.92197949  0.21088031     0.13900
C1040       C  0.72056418  0.93819904  0.22549406    -0.30300
C1041       C  0.77972165  0.55492656  0.21709780    -0.30600
N1042       N  0.74721644  0.56797020  0.19974114     0.14400
H1043       H  0.80804140  0.56605538  0.21175889     0.17000
C1044       C  0.71659043  0.54901575  0.21474174    -0.30600
H1045       H  0.68707132  0.55326310  0.20518463     0.17000
H1046       H  0.69207705  0.93369632  0.21212934     0.17000
H1047       H  0.81147405  0.01096023  0.37258484     0.17100
H1048       H  0.81318266  0.93342670  0.21988560     0.17000
C1049       C  0.53799239  0.50364852  0.69650166     0.30900
C1050       C  0.95898606  0.50383485  0.69742914     0.30900
C1051       C  0.51870341  0.49478985  0.65207383    -0.05300
C1052       C  0.51800074  0.97938075  0.73145492    -0.06100
C1053       C  0.51975138  0.53861810  0.70840092    -0.05900
C1054       C  0.97880615  0.49475800  0.65268562    -0.05300
C1055       C  0.97790220  0.97903644  0.73130892    -0.06000
C1056       C  0.97906012  0.53857133  0.70945455    -0.05900
C1057       C  0.96832825  0.99441919  0.60780353    -0.31300
N1058       N  0.00019426  0.99394101  0.58077247     0.15200
C1059       C  0.53155240  0.99434326  0.60744079    -0.31300
H1060       H  0.56093883  0.99716966  0.59535171     0.17100
C1061       C  0.96519647  0.95736215  0.76583464    -0.30300
N1062       N  0.49638132  0.94453888  0.78665259     0.13900
C1063       C  0.52856864  0.95814538  0.76633783    -0.30300
C1064       C  0.96873123  0.56306204  0.74096424    -0.30600
N1065       N  0.50061275  0.57885132  0.75711890     0.14400
H1066       H  0.94009539  0.56686360  0.75448167     0.17000
C1067       C  0.53160210  0.56344228  0.73860446    -0.30600
H1068       H  0.56092100  0.56813072  0.74885913     0.17000
H1069       H  0.55791657  0.95210515  0.77562388     0.17000
H1070       H  0.93925167  0.99779718  0.59607314     0.17100
H1071       H  0.93591084  0.95158936  0.77525339     0.17000
C1072       C  0.70937859  0.00012679  0.69747613     0.30900
C1073       C  0.78872575  0.00081448  0.69570447     0.30900
C1074       C  0.72912774  0.00189324  0.65098493    -0.05300
C1075       C  0.72853732  0.52959565  0.72396799    -0.06100
C1076       C  0.72846540  0.96830635  0.71906504    -0.05900
C1077       C  0.76906290  0.00229369  0.65005492    -0.05300
C1078       C  0.76869016  0.52963324  0.72368583    -0.06000
C1079       C  0.76890403  0.96867279  0.71772531    -0.05900
C1080       C  0.78038661  0.50318041  0.60580142    -0.31300
N1081       N  0.74870644  0.50312549  0.57973455     0.15200
C1082       C  0.71692528  0.50290961  0.60689938    -0.31300
H1083       H  0.68771645  0.50210893  0.59544203     0.17100
C1084       C  0.78045570  0.55314713  0.75543112    -0.30300
N1085       N  0.74894427  0.56840570  0.77316680     0.13900
C1086       C  0.71711007  0.55350849  0.75525459    -0.30300
C1087       C  0.78045690  0.94447959  0.74860178    -0.30600
N1088       N  0.74909122  0.92924372  0.76859556     0.14400
H1089       H  0.81002006  0.93925943  0.75731496     0.17000
C1090       C  0.71732108  0.94428331  0.75184231    -0.30600
H1091       H  0.68857100  0.93963957  0.76481805     0.17000
H1092       H  0.68775938  0.55886041  0.76560575     0.17000
H1093       H  0.80996945  0.50301139  0.59319622     0.17100
H1094       H  0.80959163  0.55831796  0.76568370     0.17000
Zn1095     Zn  0.53243011  0.70911910  0.98117569     1.49700
Zn1096     Zn  0.53410277  0.79213812  0.98612573     1.49400
Zn1097     Zn  0.97103679  0.75288996  0.92995767     1.49100
Zn1098     Zn  0.97038721  0.74732408  0.04025569     1.49500
O1099       O  0.50179012  0.75052643  0.98430190    -1.83200
O1100       O  0.58795271  0.72253988  0.98051648    -0.73800
O1101       O  0.52565565  0.82437392  0.93366089    -0.73700
O1102       O  0.98044981  0.71276875  0.88768312    -0.73200
O1103       O  0.58945722  0.77966926  0.98825055    -0.73800
O1104       O  0.52215223  0.68217533  0.92473058    -0.73400
O1105       O  0.97949809  0.79783945  0.89578365    -0.74000
O1106       O  0.91504039  0.74477851  0.02317444    -0.73400
O1107       O  0.52177634  0.82037018  0.04009266    -0.74200
O1108       O  0.91579469  0.75186854  0.94831998    -0.73600
O1109       O  0.97639221  0.79048491  0.07812420    -0.74000
O1110       O  0.98251936  0.70509018  0.07873901    -0.73900
O1111       O  0.52390383  0.67764538  0.03548690    -0.73700
C1112       C  0.60615898  0.75097371  0.98484969     0.78100
C1113       C  0.50197869  0.82412854  0.90142946     0.78500
C1114       C  0.50129347  0.68671240  0.89038473     0.77500
C1115       C  0.89798630  0.74824145  0.98587112     0.77900
C1116       C  0.49778230  0.81782128  0.07276986     0.79000
C1117       C  0.50429297  0.67991762  0.07200495     0.78100
Zn1118     Zn  0.78456915  0.79038893  0.98410334     1.49700
Zn1119     Zn  0.78260367  0.70807365  0.98912885     1.49400
Zn1120     Zn  0.71931843  0.75048287  0.04125002     1.49100
Zn1121     Zn  0.72146210  0.74696063  0.93180625     1.48300
O1122       O  0.75176443  0.74913148  0.98664098    -1.83200
O1123       O  0.83984316  0.77712297  0.98143942    -0.73800
O1124       O  0.77007735  0.68022209  0.04355898    -0.73700
O1125       O  0.73152181  0.79235740  0.07816549    -0.73200
O1126       O  0.83818477  0.72007668  0.99078564    -0.73800
O1127       O  0.77720440  0.82031764  0.03888752    -0.73400
O1128       O  0.72503119  0.70805852  0.08126844    -0.74000
O1129       O  0.66592598  0.74700381  0.94869562    -0.73400
O1130       O  0.77389512  0.67648738  0.93710833    -0.74200
O1131       O  0.66422552  0.75302934  0.02345545    -0.73600
O1132       O  0.73044476  0.70323970  0.89702005    -0.74000
O1133       O  0.73092457  0.78871471  0.89124562    -0.73900
O1134       O  0.77337424  0.81938920  0.92962519    -0.73700
C1135       C  0.85649414  0.74849418  0.98609411     0.78100
C1136       C  0.74691865  0.68234813  0.07690344     0.78500
C1137       C  0.75491694  0.81784639  0.07331497     0.77500
C1138       C  0.64763941  0.75047158  0.98574252     0.77900
C1139       C  0.75181344  0.67745342  0.90351741     0.79000
C1140       C  0.75172020  0.81581498  0.89573280     0.78100
C1141       C  0.72129130  0.87502384  0.79953193    -0.11300
C1142       C  0.74925368  0.90157408  0.80152503     0.05700
C1143       C  0.77820563  0.89929382  0.83427734    -0.06600
C1144       C  0.77885381  0.87071939  0.86333552    -0.07400
C1145       C  0.75069859  0.84428259  0.86174890    -0.01900
C1146       C  0.72163430  0.84666326  0.82914016     0.04900
N1147       N  0.69188165  0.82090667  0.82596895     0.67400
H1148       H  0.69909740  0.87611394  0.77425825     0.16300
H1149       H  0.80129448  0.86975661  0.88825394     0.16000
N1150       N  0.80617241  0.92638271  0.84005809     0.75100
O1151       O  0.66125550  0.82363191  0.84900579    -0.38300
O1152       O  0.69373574  0.79856049  0.79543658    -0.38300
O1153       O  0.79546638  0.95629087  0.84989660    -0.39000
O1154       O  0.84153434  0.91964577  0.84026184    -0.39100
C1155       C  0.77152358  0.59215672  0.84464941    -0.11300
C1156       C  0.74945482  0.59551885  0.80587044     0.05700
C1157       C  0.72792646  0.62552325  0.79965164    -0.06600
C1158       C  0.72854637  0.65126170  0.83239177    -0.07400
C1159       C  0.75079260  0.64825536  0.87126054    -0.01900
C1160       C  0.77207237  0.61784323  0.87757078     0.04900
N1161       N  0.79358788  0.61209054  0.91751303     0.67400
H1162       H  0.78774695  0.56890854  0.84987142     0.16300
H1163       H  0.71233915  0.67438830  0.82646507     0.16000
N1164       N  0.70716482  0.63119815  0.75906425     0.75100
O1165       O  0.77613392  0.60453389  0.95406320    -0.38300
O1166       O  0.82960165  0.60897017  0.91473253    -0.38300
O1167       O  0.67428684  0.64436552  0.76089957    -0.39000
O1168       O  0.72382092  0.62785907  0.72124279    -0.39100
C1169       C  0.47164890  0.88730416  0.80958044    -0.11300
C1170       C  0.49554627  0.91593907  0.81797881     0.05700
C1171       C  0.02114313  0.91393602  0.85386444    -0.06600
C1172       C  0.02329373  0.88371242  0.87987760    -0.07400
C1173       C  0.49988387  0.85507310  0.87131933    -0.01900
C1174       C  0.47350230  0.85712882  0.83557465     0.04900
N1175       N  0.44878961  0.82871627  0.82451595     0.67400
H1176       H  0.45214551  0.88791983  0.78126439     0.16300
H1177       H  0.04315029  0.88338362  0.90776572     0.16000
N1178       N  0.04395887  0.94344755  0.86572646     0.75100
O1179       O  0.41355018  0.82934099  0.83532681    -0.38300
O1180       O  0.46056962  0.80619868  0.79746608    -0.38300
O1181       O  0.02773360  0.97025949  0.87948935    -0.39000
O1182       O  0.08001267  0.94123304  0.86828016    -0.39100
C1183       C  0.97536478  0.63260420  0.78754378    -0.11300
C1184       C  0.50093627  0.60556650  0.79075547     0.05700
C1185       C  0.52759205  0.60595404  0.82615859    -0.06600
C1186       C  0.52780256  0.63314543  0.85692629    -0.07400
C1187       C  0.50152225  0.66016181  0.85414686    -0.01900
C1188       C  0.97572077  0.65989375  0.81828072     0.04900
N1189       N  0.94954740  0.68736226  0.81191934     0.67400
H1190       H  0.95537499  0.63310571  0.75990399     0.16300
H1191       H  0.54819009  0.63244544  0.88411957     0.16000
N1192       N  0.55328674  0.57811880  0.83296017     0.75100
O1193       O  0.96145747  0.71527694  0.79397542    -0.38300
O1194       O  0.91384327  0.68171834  0.81681017    -0.38300
O1195       O  0.58883997  0.58416766  0.83721053    -0.39000
O1196       O  0.54011022  0.54786356  0.83897732    -0.39100
C1197       C  0.89438231  0.53336490  0.68976496    -0.11300
C1198       C  0.91538708  0.00211876  0.69382138     0.05700
C1199       C  0.89386299  0.97069367  0.69145320    -0.06600
C1200       C  0.85347867  0.97116962  0.69098409    -0.07400
C1201       C  0.83306002  0.00204821  0.69225896    -0.01900
C1202       C  0.85401925  0.53370224  0.68773343     0.04900
N1203       N  0.83609751  0.56602028  0.67880891     0.67400
H1204       H  0.90991244  0.55754509  0.68500173     0.16300
H1205       H  0.83807868  0.94687595  0.68788751     0.16000
N1206       N  0.91208470  0.93793570  0.68852411     0.75100
O1207       O  0.84823788  0.59304852  0.69769415    -0.38300
O1208       O  0.81303729  0.56874839  0.64669261    -0.38300
O1209       O  0.90015588  0.91331439  0.71347674    -0.39000
O1210       O  0.93328712  0.93138765  0.65487462    -0.39100
C1211       C  0.60420207  0.53222956  0.68647687    -0.11300
C1212       C  0.58287364  0.00120473  0.69357725     0.05700
C1213       C  0.60290340  0.96963199  0.69464392    -0.06600
C1214       C  0.64332826  0.97010713  0.69651012    -0.07400
C1215       C  0.66518466  0.00100874  0.69485823    -0.01900
C1216       C  0.64457531  0.53250847  0.68582070     0.04900
N1217       N  0.66429753  0.56445399  0.67513172     0.67400
H1218       H  0.59001955  0.55611283  0.67918342     0.16300
H1219       H  0.65771755  0.94570780  0.69661788     0.16000
N1220       N  0.58326081  0.93678926  0.69219917     0.75100
O1221       O  0.65296812  0.59180042  0.69325021    -0.38300
O1222       O  0.68553355  0.56680888  0.64029042    -0.38300
O1223       O  0.56059059  0.93071506  0.66038277    -0.39000
O1224       O  0.59406546  0.91193908  0.71627168    -0.39100
C1225       C  0.78354020  0.89567136  0.14439559    -0.11300
C1226       C  0.75397618  0.89527826  0.17735779     0.05700
C1227       C  0.72523960  0.86912032  0.17598700    -0.06600
C1228       C  0.72601951  0.84473286  0.14156402    -0.07400
C1229       C  0.75548651  0.84502065  0.10845563    -0.01900
C1230       C  0.78463207  0.87095254  0.11026067     0.04900
N1231       N  0.81568385  0.87257421  0.07802266     0.67400
H1232       H  0.80567683  0.91576089  0.14451131     0.16300
H1233       H  0.70350681  0.82498617  0.14134878     0.16000
N1234       N  0.69586424  0.86610971  0.21029317     0.75100
O1235       O  0.81246702  0.89019398  0.04239017    -0.38300
O1236       O  0.84819509  0.86146028  0.08855561    -0.38300
O1237       O  0.66090905  0.86454627  0.19958911    -0.39000
O1238       O  0.70490730  0.86152312  0.25088727    -0.39100
C1239       C  0.73192119  0.62808751  0.18385622    -0.11300
C1240       C  0.74556446  0.59637383  0.16901583     0.05700
C1241       C  0.75836264  0.59279002  0.12427967    -0.06600
C1242       C  0.75860034  0.62121025  0.09522236    -0.07400
C1243       C  0.74549967  0.65339266  0.10974474    -0.01900
C1244       C  0.73179804  0.65667054  0.15460625     0.04900
N1245       N  0.71940275  0.68900633  0.17152392     0.67400
H1246       H  0.72213872  0.63071400  0.21850866     0.16300
H1247       H  0.76836549  0.61777386  0.06067837     0.16000
N1248       N  0.76990563  0.56005863  0.10762696     0.75100
O1249       O  0.68393763  0.69448099  0.17637421    -0.38300
O1250       O  0.74362350  0.70973294  0.18807215    -0.38300
O1251       O  0.74539948  0.53576396  0.10497193    -0.39000
O1252       O  0.80261905  0.55702287  0.08917072    -0.39100
C1253       C  0.72681844  0.02719935  0.50918334    -0.11300
C1254       C  0.74867082  0.50402488  0.53143378     0.05700
C1255       C  0.77011945  0.48034086  0.50625025    -0.06600
C1256       C  0.77181253  0.48318166  0.45923987    -0.07400
C1257       C  0.75116015  0.00788002  0.43671123    -0.01900
C1258       C  0.72801305  0.03014504  0.46212915     0.04900
N1259       N  0.70714714  0.05679188  0.44056723     0.67400
H1260       H  0.70961588  0.04502625  0.52881130     0.16300
H1261       H  0.78777276  0.46440535  0.43983569     0.16000
N1262       N  0.78801386  0.45199847  0.52797009     0.75100
O1263       O  0.67089956  0.05672390  0.44329876    -0.38300
O1264       O  0.72934227  0.58509789  0.42439489    -0.38300
O1265       O  0.77181837  0.92939956  0.54889141    -0.39000
O1266       O  0.82374113  0.44782483  0.52328250    -0.39100
C1267       C  0.47134169  0.84259735  0.14432290    -0.11300
C1268       C  0.49523722  0.84648110  0.10571911     0.05700
C1269       C  0.01744928  0.87686529  0.10078942    -0.06600
C1270       C  0.01671792  0.90188474  0.13434119    -0.07400
C1271       C  0.49355414  0.89802842  0.17255584    -0.01900
C1272       C  0.47032695  0.86804847  0.17754224     0.04900
N1273       N  0.44732471  0.86222878  0.21739625     0.67400
H1274       H  0.45415278  0.81926652  0.14953161     0.16300
H1275       H  0.03381051  0.92532271  0.12972293     0.16000
N1276       N  0.04009482  0.88387755  0.06093991     0.75100
O1277       O  0.41113151  0.86089403  0.21499547    -0.38300
O1278       O  0.46317588  0.85490391  0.25409317    -0.38300
O1279       O  0.02438721  0.89623036  0.02652446    -0.39000
O1280       O  0.07630115  0.88302878  0.06248305    -0.39100
C1281       C  0.98742082  0.62408701  0.17885711    -0.11300
C1282       C  0.50842425  0.59516329  0.16835162     0.05700
C1283       C  0.52855852  0.59393976  0.12678644    -0.06600
C1284       C  0.52737371  0.62188204  0.09646201    -0.07400
C1285       C  0.50639053  0.65163371  0.10659750    -0.01900
C1286       C  0.98654413  0.65226011  0.14891119     0.04900
N1287       N  0.96616914  0.68210137  0.16251839     0.67400
H1288       H  0.97206764  0.62541084  0.21084751     0.16300
H1289       H  0.54231938  0.61979888  0.06429618     0.16000
N1290       N  0.54836377  0.56364909  0.11369180     0.75100
O1291       O  0.92994711  0.68215678  0.16073808    -0.38300
O1292       O  0.48532270  0.70693278  0.18279845    -0.38300
O1293       O  0.03027760  0.53852036  0.09594937    -0.39000
O1294       O  0.58465057  0.56358989  0.11353555    -0.39100
C1295       C  0.89826413  0.50543960  0.23390477    -0.11300
C1296       C  0.91656917  0.99560791  0.27286356     0.05700
C1297       C  0.89321349  0.97848131  0.30633399    -0.06600
C1298       C  0.85295452  0.98046174  0.30427721    -0.07400
C1299       C  0.83440949  0.99744625  0.26887040    -0.01900
C1300       C  0.85801186  0.50592222  0.23070418     0.04900
N1301       N  0.84237229  0.51238397  0.18696578     0.67400
H1302       H  0.91515212  0.51078204  0.20365276     0.16300
H1303       H  0.83582867  0.96667179  0.32963077     0.16000
N1304       N  0.90901902  0.95685626  0.34068333     0.75100
O1305       O  0.85889990  0.53396876  0.16063018    -0.38300
O1306       O  0.81673478  0.49257303  0.17147237    -0.38300
O1307       O  0.89370164  0.95575606  0.37961050    -0.39000
O1308       O  0.93328169  0.93442181  0.33030716    -0.39100
C1309       C  0.60467084  0.52436897  0.28086730    -0.11300
C1310       C  0.58409513  0.99320168  0.27627291     0.05700
C1311       C  0.60541022  0.96245784  0.28006408    -0.06600
C1312       C  0.64583134  0.96425944  0.27883222    -0.07400
C1313       C  0.66634008  0.99585518  0.27727451    -0.01900
C1314       C  0.64497825  0.52620792  0.28272715     0.04900
N1315       N  0.66272171  0.55926667  0.29082723     0.67400
H1316       H  0.58882286  0.54795762  0.28410317     0.16300
H1317       H  0.66120396  0.94052407  0.28231397     0.16000
N1318       N  0.58724495  0.92963046  0.28983222     0.75100
O1319       O  0.65116888  0.58549097  0.27000192    -0.38300
O1320       O  0.68294964  0.56362650  0.32522878    -0.38300
O1321       O  0.60006121  0.90273015  0.27184549    -0.39000
O1322       O  0.56324357  0.92666273  0.32213302    -0.39100
C1323       C  0.97543228  0.48126894  0.45983934    -0.11300
C1324       C  0.99931000  0.50618646  0.43835414     0.05700
C1325       C  0.52367234  0.02715220  0.46424897    -0.06600
C1326       C  0.52434564  0.02225632  0.51113654    -0.07400
C1327       C  0.00056578  0.99732664  0.53243290    -0.01900
C1328       C  0.97573913  0.47673484  0.50668216     0.04900
N1329       N  0.95301867  0.44948081  0.52693355     0.67400
H1330       H  0.95746209  0.46436563  0.43981636     0.16300
H1331       H  0.54258266  0.03891190  0.53122797     0.16000
N1332       N  0.54605195  0.05458154  0.44394583     0.75100
O1333       O  0.91679500  0.45063841  0.52644252    -0.38300
O1334       O  0.96930240  0.92166860  0.53764847    -0.38300
O1335       O  0.52971217  0.58225554  0.43193848    -0.39000
O1336       O  0.58226085  0.05439798  0.44578467    -0.39100
loop_ 
_geom_bond_atom_site_label_1 
_geom_bond_atom_site_label_2 
_geom_bond_distance 
_geom_bond_site_symmetry_2 
_ccdc_geom_bond_type 
C1            C3   1.537       .  S
C1            C5   1.540       .  S
C1          C308   1.541       .  S
C1          C338   1.547       .  S
C2            C6   1.539       .  S
C2            C8   1.537       .  S
C2          C294   1.542       .  S
C2          C341   1.554       .  S
C3          C345   1.379       .  A
C3          C674   1.391   1_455  A
C4          C335   1.547   1_545  S
C4           C15   1.384       .  A
C4          C675   1.399   1_455  A
C5           C19   1.381       .  A
C5          C676   1.400   1_455  A
C6          C671   1.391       .  A
C6          C343   1.379       .  A
C7          C336   1.555   1_545  S
C7           C13   1.383       .  A
C7          C672   1.400       .  A
C8           C16   1.380       .  A
C8          C673   1.400       .  A
C9          C340   1.380       .  A
C9           N10   1.358       .  A
C9           H22   1.078       .  S
N10         C679   1.358       .  A
N10         C322   1.438       .  S
C11         C337   1.379       .  A
C11         N678   1.358       .  A
C11          H12   1.086       .  S
C13         N682   1.357       .  A
C13          H23   1.083       .  S
N14          C15   1.360       .  A
N14         C681   1.357   1_455  A
N14         C280   1.443       .  S
C15          H21   1.080       .  S
C16         N685   1.354       .  A
C16          H18   1.082       .  S
N17          C19   1.354   1_655  A
N17         C684   1.353       .  A
N17         C269   1.438       .  S
C19          H20   1.082       .  S
C24          C26   1.536   1_565  S
C24          C28   1.533   1_565  S
C24         C361   1.546       .  S
C24         C645   1.543       .  S
C25          C29   1.542   1_565  S
C25          C31   1.549   1_565  S
C25         C364   1.537       .  S
C25         C631   1.544       .  S
C26          C29   1.395       .  A
C26         C368   1.375       .  A
C27         C358   1.546       .  S
C27          C38   1.382       .  A
C27          C30   1.398       .  A
C28          C42   1.374       .  A
C28          C31   1.399       .  A
C29         C366   1.380       .  A
C30         C359   1.537       .  S
C30          C36   1.377       .  A
C31          C39   1.381       .  A
C32         C363   1.380       .  A
C32          N33   1.356       .  A
C32          H45   1.077       .  S
N33          C34   1.355       .  A
N33         C255   1.432       .  S
C34         C360   1.375       .  A
C34          H35   1.087       .  S
C36          N37   1.356       .  A
C36          H46   1.083       .  S
N37          C38   1.360       .  A
N37         C224   1.444       .  S
C38          H44   1.081       .  S
C39          N40   1.355       .  A
C39          H41   1.080       .  S
N40          C42   1.349       .  A
N40         C238   1.426       .  S
C42          H43   1.082       .  S
C47          C49   1.529   1_545  S
C47          C51   1.552       .  S
C47         C384   1.541   1_545  S
C47         C544   1.542       .  S
C48          C52   1.532   1_545  S
C48          C54   1.553       .  S
C48         C387   1.540   1_545  S
C48         C530   1.542       .  S
C49         C391   1.380       .  A
C49         C720   1.388   1_455  A
C50         C381   1.541       .  S
C50          C61   1.379       .  A
C50         C721   1.394   1_455  A
C51          C65   1.384       .  A
C51         C722   1.415   1_455  A
C52         C717   1.388       .  A
C52         C389   1.378       .  A
C53         C382   1.540       .  S
C53          C59   1.379       .  A
C53         C718   1.394       .  A
C54          C62   1.388       .  A
C54         C719   1.415       .  A
C55         C386   1.379       .  A
C55          N56   1.357       .  A
C55          H68   1.085       .  S
N56         C725   1.357       .  A
N56         C325   1.438       .  S
C57         C383   1.379       .  A
C57         N724   1.357   1_455  A
C57          H58   1.081       .  S
C59         N728   1.358       .  A
C59          H69   1.089       .  S
N60          C61   1.359   1_655  A
N60         C727   1.358       .  A
N60         C168   1.441       .  S
C61          H67   1.070       .  S
C62         N731   1.353       .  A
C62          H64   1.082       .  S
N63          C65   1.354       .  A
N63         C730   1.353   1_455  A
N63         C182   1.446       .  S
C65          H66   1.082       .  S
C70          C72   1.530       .  S
C70          C74   1.552       .  S
C70         C213   1.541       .  S
C70         C407   1.539       .  S
C71          C75   1.529       .  S
C71          C77   1.547       .  S
C71         C199   1.543       .  S
C71         C410   1.542       .  S
C72          C75   1.388       .  A
C72         C414   1.376       .  A
C73         C404   1.540       .  S
C73          C84   1.379       .  A
C73          C76   1.396       .  A
C74          C88   1.386       .  A
C74          C77   1.407       .  A
C75         C412   1.375       .  A
C76         C405   1.543       .  S
C76          C82   1.380       .  A
C77          C85   1.378       .  A
C78         C409   1.375       .  A
C78          N79   1.357       .  A
C78          H91   1.091       .  S
N79          C80   1.356       .  A
N79         C252   1.433       .  S
C80         C406   1.376       .  A
C80          H81   1.074       .  S
C82          N83   1.357       .  A
C82          H92   1.077       .  S
N83          C84   1.357       .  A
N83         C154   1.439       .  S
C84          H90   1.087       .  S
C85          N86   1.355       .  A
C85          H87   1.085       .  S
N86          C88   1.359       .  A
N86         C140   1.445       .  S
C88          H89   1.077       .  S
Zn93         O97   1.950       .  S
Zn93         O98   1.990       .  S
Zn93        O102   2.017       .  S
Zn93        O109   2.027   1_556  S
Zn94         O97   1.951       .  S
Zn94         O99   2.017       .  S
Zn94        O101   1.996       .  S
Zn94        O105   1.995   1_556  S
Zn95        O765   1.961       .  S
Zn95        O100   2.040       .  S
Zn95        O103   2.024       .  S
Zn95        O106   1.989       .  S
Zn96        O765   1.965   1_554  S
Zn96        O104   2.001       .  S
Zn96        O107   2.037       .  S
Zn96        O108   2.045       .  S
O97        Zn763   1.962   1_455  S
O97        Zn764   1.965   1_456  S
O98         C110   1.270       .  A
O99         C111   1.273       .  A
O100        C780   1.275       .  A
O101        C110   1.271       .  A
O102        C112   1.274       .  A
O103        C779   1.273       .  A
O104        C113   1.273   1_554  A
O105        C114   1.269   1_455  A
O106        C113   1.270       .  A
O107        C782   1.275       .  A
O108        C783   1.276       .  A
O109        C115   1.274       .  A
C110        C136   1.444       .  S
C111        O771   1.273   1_455  A
C111        C171   1.494   1_455  S
C112        O768   1.275   1_455  A
C112        C185   1.497       .  S
C113        C133   1.444       .  S
C114        O775   1.275       .  A
C114        C266   1.492       .  S
C115        O776   1.276   1_455  A
C115        C283   1.499       .  S
Zn116       O120   1.948       .  S
Zn116       O121   2.001       .  S
Zn116       O125   2.023   1_556  S
Zn116       O132   2.009       .  S
Zn117       O120   1.943       .  S
Zn117       O122   1.977   1_556  S
Zn117       O124   1.983       .  S
Zn117       O128   2.004       .  S
Zn118       O120   1.958   1_554  S
Zn118       O123   2.012       .  S
Zn118       O126   2.035       .  S
Zn118       O129   2.001       .  S
Zn119       O120   1.957       .  S
Zn119       O127   1.987       .  S
Zn119       O130   2.026       .  S
Zn119       O131   2.029       .  S
O121        C133   1.272       .  A
O122        C134   1.269       .  A
O123        C135   1.273       .  A
O124        C133   1.268       .  A
O125        C135   1.273       .  A
O126        C134   1.274       .  A
O127        C136   1.270       .  A
O128        C137   1.270       .  A
O129        C136   1.272   1_554  A
O130        C137   1.275       .  A
O131        C138   1.274       .  A
O132        C138   1.274       .  A
C134        C241   1.478       .  S
C135        C227   1.491       .  S
C137        C157   1.492       .  S
C138        C143   1.491       .  S
C139        C140   1.405       .  A
C139        C144   1.403       .  A
C139        H146   1.086       .  S
C140        C141   1.414       .  A
C141        C142   1.400       .  A
C141        N148   1.432       .  S
C142        C143   1.406       .  A
C142        H147   1.085       .  S
C143        C144   1.416       .  A
C144        N145   1.429       .  S
N145        O149   1.262       .  A
N145        O150   1.262       .  A
N148        O152   1.263       .  A
N148        O151   1.262       .  A
C153        C154   1.401       .  A
C153        C158   1.402       .  A
C153        H160   1.087       .  S
C154        C155   1.411       .  A
C155        C156   1.401       .  A
C155        N162   1.433       .  S
C156        C157   1.406       .  A
C156        H161   1.085       .  S
C157        C158   1.419       .  A
C158        N159   1.430       .  S
N159        O163   1.262       .  A
N159        O164   1.262       .  A
N162        O166   1.262       .  A
N162        O165   1.263       .  A
C167        C168   1.403       .  A
C167        C172   1.401       .  A
C167        H174   1.077       .  S
C168        C837   1.409   1_655  A
C169        C170   1.403       .  A
C169        C836   1.409       .  A
C169        N176   1.431       .  S
C170        C839   1.410       .  A
C170        H175   1.081       .  S
C171        C172   1.417       .  A
C171        C838   1.410   1_655  A
C172        N173   1.429       .  S
N173        O177   1.262       .  A
N173        O178   1.262       .  A
N176        O180   1.262       .  A
N176        O179   1.262       .  A
C181        C186   1.405       .  A
C181        C850   1.404       .  A
C181        H188   1.084       .  S
C182        C183   1.413       .  A
C182        C849   1.405   1_455  A
C183        C184   1.402       .  A
C183        N190   1.432       .  S
C184        C185   1.409       .  A
C184        H189   1.084       .  S
C185        C854   1.417   1_455  A
C186        C853   1.417       .  A
C186        N187   1.430       .  S
N187        O191   1.262       .  A
N187        O192   1.262       .  A
N190        O194   1.262       .  A
N190        O193   1.262       .  A
C195        C200   1.406       .  A
C195        C530   1.408       .  A
C195        H202   1.080       .  S
C196        C382   1.542       .  S
C196        C197   1.422       .  A
C196        C529   1.408       .  A
C197        C198   1.405       .  A
C197        N204   1.435       .  S
C198        C199   1.407       .  A
C198        H203   1.081       .  S
C199        C534   1.422       .  A
C200        C533   1.422       .  A
C200        N201   1.437       .  S
N201        O205   1.263       .  A
N201        O206   1.261       .  A
N204        O208   1.261       .  A
N204        O207   1.263       .  A
C209        C214   1.403       .  A
C209        C544   1.404       .  A
C209        H216   1.081       .  S
C210        C381   1.541       .  S
C210        C211   1.423       .  A
C210        C543   1.405       .  A
C211        C212   1.407       .  A
C211        N218   1.437       .  S
C212        C213   1.407       .  A
C212        H217   1.081       .  S
C213        C548   1.422       .  A
C214        C547   1.422       .  A
C214        N215   1.435       .  S
N215        O219   1.262       .  A
N215        O220   1.261       .  A
N218        O222   1.263       .  A
N218        O221   1.261       .  A
C223        C224   1.406       .  A
C223        C228   1.403       .  A
C223        H230   1.083       .  S
C224        C225   1.411       .  A
C225        C226   1.400       .  A
C225        N232   1.431       .  S
C226        C227   1.407       .  A
C226        H231   1.083       .  S
C227        C228   1.416       .  A
C228        N229   1.430       .  S
N229        O233   1.262       .  A
N229        O234   1.262       .  A
N232        O236   1.262       .  A
N232        O235   1.262       .  A
C237        C238   1.400       .  A
C237        C242   1.403       .  A
C237        H244   1.084       .  S
C238        C239   1.401       .  A
C239        C240   1.394       .  A
C239        N246   1.429       .  S
C240        C241   1.406       .  A
C240        H245   1.085       .  S
C241        C242   1.413       .  A
C242        N243   1.429       .  S
N243        O247   1.262       .  A
N243        O248   1.262       .  A
N246        O250   1.261       .  A
N246        O249   1.262       .  A
C251        C256   1.400       .  A
C251        C586   1.402       .  A
C251        H258   1.088       .  S
C252        C253   1.408   1_545  A
C252        C585   1.402       .  A
C253        C254   1.398       .  A
C253        N260   1.430       .  S
C254        C589   1.401   1_565  A
C254        H259   1.090       .  S
C255        C256   1.408       .  A
C255        C588   1.401       .  A
C256        N257   1.429       .  S
N257        O261   1.262       .  A
N257        O596   1.262       .  A
N260        O264   1.262       .  A
N260        O597   1.262       .  A
O262        N591   1.262       .  A
O263        N594   1.262       .  A
C265        C266   1.408       .  A
C265        C270   1.403       .  A
C265        H272   1.084       .  S
C266        C935   1.419   1_655  A
C267        C268   1.398       .  A
C267        C934   1.419       .  A
C267        N274   1.430       .  S
C268        C937   1.399       .  A
C268        H273   1.084       .  S
C269        C270   1.409       .  A
C269        C936   1.399   1_655  A
C270        N271   1.429       .  S
N271        O275   1.262       .  A
N271        O276   1.262       .  A
N274        O278   1.262       .  A
N274        O277   1.262       .  A
C279        C284   1.404       .  A
C279        C948   1.402       .  A
C279        H286   1.083       .  S
C280        C281   1.408       .  A
C280        C947   1.402   1_455  A
C281        C282   1.405       .  A
C281        N288   1.429       .  S
C282        C283   1.411       .  A
C282        H287   1.083       .  S
C283        C952   1.417   1_455  A
C284        C951   1.417       .  A
C284        N285   1.428       .  S
N285        O289   1.262       .  A
N285        O958   1.262       .  A
N288        O292   1.262       .  A
N288        O959   1.262       .  A
O290        N953   1.262       .  A
O291        N956   1.262       .  A
C293        C298   1.405       .  A
C293        C628   1.405   1_545  A
C293        H300   1.080       .  S
C294        C295   1.423       .  A
C294        C627   1.405       .  A
C295        C296   1.406       .  A
C295        N302   1.439       .  S
C296        C297   1.408       .  A
C296        H301   1.082       .  S
C297        C359   1.544       .  S
C297        C632   1.424       .  A
C298        C631   1.424   1_545  A
C298        N299   1.438       .  S
N299        O303   1.263       .  A
N299        O304   1.261   1_545  A
N302        O306   1.262       .  A
N302        O305   1.263       .  A
C307        C312   1.404       .  A
C307        C642   1.405   1_545  A
C307        H314   1.083       .  S
C308        C309   1.423       .  A
C308        C641   1.404       .  A
C309        C310   1.406       .  A
C309        N316   1.436       .  S
C310        C311   1.407       .  A
C310        H315   1.081       .  S
C311        C358   1.543       .  S
C311        C646   1.425       .  A
C312        C645   1.425   1_545  A
C312        N313   1.437       .  S
N313        O317   1.263       .  A
N313        O318   1.261       .  A
N316        O320   1.262       .  A
N316        O319   1.263       .  A
C321        C322   1.403   1_565  A
C321        C326   1.400       .  A
C321        H328   1.086       .  S
C322       C1325   1.408       .  A
C323        C324   1.403       .  A
C323       C1324   1.408   1_455  A
C323        N330   1.428       .  S
C324        C993   1.405   1_455  A
C324        H329   1.085       .  S
C325        C992   1.404       .  A
C325        C660   1.409       .  A
C326        C659   1.410       .  A
C326        N327   1.429       .  S
N327        O331   1.262       .  A
N327        O666   1.262       .  A
N330        O334   1.262       .  A
N330        O667   1.262       .  A
O332        N661   1.262       .  A
O333        N664   1.262       .  A
C335        C337   1.537   1_565  S
C335        C339   1.539       .  S
C335        C642   1.541       .  S
C336        C340   1.539   1_565  S
C336        C342   1.536       .  S
C336        C628   1.542       .  S
C337       C1008   1.391   1_455  A
C338        C349   1.384       .  A
C338       C1009   1.399   1_455  A
C339        C353   1.380       .  A
C339       C1010   1.400   1_455  A
C340       C1005   1.391       .  A
C341       C1006   1.399       .  A
C341        C347   1.383       .  A
C342       C1007   1.400       .  A
C342        C350   1.380       .  A
C343        N344   1.357       .  A
C343        H356   1.078       .  S
N344       C1013   1.358       .  A
N344        C656   1.438       .  S
C345       N1012   1.358       .  A
C345        H346   1.084       .  S
C347       N1016   1.357       .  A
C347        H357   1.083       .  S
N348       C1015   1.357   1_455  A
N348        C349   1.360       .  A
N348        C614   1.444       .  S
C349        H355   1.080       .  S
C350       N1019   1.353       .  A
C350        H352   1.081       .  S
N351       C1018   1.353       .  A
N351        C353   1.354   1_655  A
N351        C603   1.436       .  S
C353        H354   1.084       .  S
C358        C360   1.535       .  S
C358        C362   1.533       .  S
C359        C363   1.542       .  S
C359        C365   1.549       .  S
C360        C363   1.395       .  A
C361        C372   1.381       .  A
C361        C364   1.397       .  A
C362        C376   1.373       .  A
C362        C365   1.399       .  A
C364        C370   1.377       .  A
C365        C373   1.381       .  A
C366        N367   1.356       .  A
C366        H379   1.076       .  S
N367        C368   1.355       .  A
N367        C589   1.433       .  S
C368        H369   1.089       .  S
C370        N371   1.357       .  A
C370        H380   1.080       .  S
N371        C372   1.359       .  A
N371        C558   1.444       .  S
C372        H378   1.084       .  S
C373        N374   1.356       .  A
C373        H375   1.077       .  S
N374        C376   1.349       .  A
N374        C572   1.427       .  S
C376        H377   1.085       .  S
C381        C383   1.528       .  S
C381        C385   1.551       .  S
C382        C386   1.532       .  S
C382        C388   1.554       .  S
C383       C1054   1.387   1_455  A
C384        C395   1.377       .  A
C384       C1055   1.393   1_455  A
C385        C399   1.383       .  A
C385       C1056   1.415   1_455  A
C386       C1051   1.387       .  A
C387       C1052   1.393       .  A
C387        C393   1.380       .  A
C388       C1053   1.415       .  A
C388        C396   1.388       .  A
C389        N390   1.357       .  A
C389        H402   1.085       .  S
N390       C1059   1.357       .  A
N390        C659   1.439       .  S
C391       N1058   1.358       .  A
C391        H392   1.080       .  S
C393       N1062   1.361       .  A
C393        H403   1.072       .  S
N394       C1061   1.361       .  A
N394        C395   1.357   1_655  A
N394        C502   1.441       .  S
C395        H401   1.094       .  S
C396       N1065   1.354       .  A
C396        H398   1.081       .  S
N397       C1064   1.354   1_455  A
N397        C399   1.353       .  A
N397        C516   1.445       .  S
C399        H400   1.082       .  S
C404        C406   1.530       .  S
C404        C408   1.553   1_545  S
C404        C547   1.541       .  S
C405        C409   1.529       .  S
C405        C411   1.547   1_545  S
C405        C533   1.543       .  S
C406        C409   1.388       .  A
C407        C418   1.378       .  A
C407        C410   1.396       .  A
C408        C422   1.386       .  A
C408        C411   1.407       .  A
C410        C416   1.379       .  A
C411        C419   1.378       .  A
C412        N413   1.357       .  A
C412        H425   1.089       .  S
N413        C414   1.356       .  A
N413        C586   1.433       .  S
C414        H415   1.077       .  S
C416        N417   1.357       .  A
C416        H426   1.079       .  S
N417        C418   1.358       .  A
N417        C488   1.438       .  S
C418        H424   1.085       .  S
C419        N420   1.355       .  A
C419        H421   1.082       .  S
N420        C422   1.359       .  A
N420        C474   1.445       .  S
C422        H423   1.080       .  S
Zn427       O431   1.950       .  S
Zn427       O432   1.990       .  S
Zn427       O436   2.016       .  S
Zn427       O443   2.028   1_556  S
Zn428       O431   1.951       .  S
Zn428       O433   2.019       .  S
Zn428       O435   1.996       .  S
Zn428       O439   1.993   1_556  S
Zn429      O1099   1.960       .  S
Zn429       O434   2.039       .  S
Zn429       O437   2.024       .  S
Zn429       O440   1.988       .  S
Zn430      O1099   1.964   1_554  S
Zn430       O438   1.999       .  S
Zn430       O441   2.035       .  S
Zn430       O442   2.045       .  S
O431      Zn1097   1.961   1_455  S
O431      Zn1098   1.965   1_456  S
O432        C444   1.270       .  A
O433        C445   1.273       .  A
O434       C1114   1.275       .  A
O435        C444   1.271       .  A
O436        C446   1.274       .  A
O437       C1113   1.273       .  A
O438        C447   1.272   1_554  A
O439        C448   1.269   1_455  A
O440        C447   1.270       .  A
O441       C1116   1.275       .  A
O442       C1117   1.276       .  A
O443        C449   1.275       .  A
C444        C470   1.444       .  S
C445       O1105   1.273   1_455  A
C445        C505   1.495   1_455  S
C446       O1102   1.275   1_455  A
C446        C519   1.496       .  S
C447        C467   1.443       .  S
C448       O1109   1.275       .  A
C448        C600   1.491       .  S
C449       O1110   1.276   1_455  A
C449        C617   1.501       .  S
Zn450       O454   1.947       .  S
Zn450       O455   1.999       .  S
Zn450       O459   2.022   1_556  S
Zn450       O466   2.009       .  S
Zn451       O454   1.943       .  S
Zn451       O456   1.975   1_556  S
Zn451       O458   1.983       .  S
Zn451       O462   2.004       .  S
Zn452       O454   1.958   1_554  S
Zn452       O457   2.010       .  S
Zn452       O460   2.035       .  S
Zn452       O463   2.001       .  S
Zn453       O454   1.955       .  S
Zn453       O461   1.987       .  S
Zn453       O464   2.021       .  S
Zn453       O465   2.027       .  S
O455        C467   1.272       .  A
O456        C468   1.269       .  A
O457        C469   1.274       .  A
O458        C467   1.268       .  A
O459        C469   1.273       .  A
O460        C468   1.274       .  A
O461        C470   1.270       .  A
O462        C471   1.270       .  A
O463        C470   1.272   1_554  A
O464        C471   1.274       .  A
O465        C472   1.274       .  A
O466        C472   1.274       .  A
C468        C575   1.479       .  S
C469        C561   1.490       .  S
C471        C491   1.491       .  S
C472        C477   1.491       .  S
C473        C474   1.405       .  A
C473        C478   1.403       .  A
C473        H480   1.085       .  S
C474        C475   1.415       .  A
C475        C476   1.400       .  A
C475        N482   1.431       .  S
C476        C477   1.406       .  A
C476        H481   1.084       .  S
C477        C478   1.415       .  A
C478        N479   1.429       .  S
N479        O483   1.262       .  A
N479        O484   1.262       .  A
N482        O486   1.263       .  A
N482        O485   1.262       .  A
C487        C488   1.401       .  A
C487        C492   1.402       .  A
C487        H494   1.086       .  S
C488        C489   1.410       .  A
C489        C490   1.400       .  A
C489        N496   1.433       .  S
C490        C491   1.406       .  A
C490        H495   1.085       .  S
C491        C492   1.419       .  A
C492        N493   1.431       .  S
N493        O497   1.262       .  A
N493        O498   1.262       .  A
N496        O500   1.262       .  A
N496        O499   1.263       .  A
C501        C502   1.401       .  A
C501        C506   1.400       .  A
C501        H508   1.091       .  S
C502       C1171   1.410   1_655  A
C503       C1170   1.410       .  A
C503        C504   1.403       .  A
C503        N510   1.431       .  S
C504       C1173   1.410       .  A
C504        H509   1.087       .  S
C505       C1172   1.409   1_655  A
C505        C506   1.418       .  A
C506        N507   1.429       .  S
N507        O511   1.262       .  A
N507        O512   1.262       .  A
N510        O514   1.262       .  A
N510        O513   1.262       .  A
C515       C1184   1.405       .  A
C515        C520   1.405       .  A
C515        H522   1.084       .  S
C516       C1183   1.404   1_455  A
C516        C517   1.413       .  A
C517        C518   1.402       .  A
C517        N524   1.432       .  S
C518        C519   1.408       .  A
C518        H523   1.084       .  S
C519       C1188   1.417   1_455  A
C520       C1187   1.417       .  A
C520        N521   1.430       .  S
N521        O525   1.262       .  A
N521        O526   1.262       .  A
N524        O528   1.262       .  A
N524        O527   1.262       .  A
C529        C534   1.406       .  A
C529        H536   1.080       .  S
C530        C531   1.421   1_545  A
C531        C532   1.405       .  A
C531        N538   1.436       .  S
C532        C533   1.407   1_565  A
C532        H537   1.081       .  S
C534        N535   1.437       .  S
N535        O539   1.263       .  A
N535        O540   1.262       .  A
N538        O542   1.261       .  A
N538        O541   1.263       .  A
C543        C548   1.404       .  A
C543        H550   1.081       .  S
C544        C545   1.423   1_545  A
C545        C546   1.408       .  A
C545        N552   1.437       .  S
C546        C547   1.407   1_565  A
C546        H551   1.080       .  S
C548        N549   1.435       .  S
N549        O553   1.262       .  A
N549        O554   1.261       .  A
N552        O556   1.263       .  A
N552        O555   1.261       .  A
C557        C558   1.406       .  A
C557        C562   1.402       .  A
C557        H564   1.084       .  S
C558        C559   1.411       .  A
C559        C560   1.399       .  A
C559        N566   1.431       .  S
C560        C561   1.407       .  A
C560        H565   1.084       .  S
C561        C562   1.416       .  A
C562        N563   1.430       .  S
N563        O567   1.262       .  A
N563        O568   1.262       .  A
N566        O570   1.262       .  A
N566        O569   1.262       .  A
C571        C572   1.400       .  A
C571        C576   1.403       .  A
C571        H578   1.084       .  S
C572        C573   1.401       .  A
C573        C574   1.394       .  A
C573        N580   1.429       .  S
C574        C575   1.407       .  A
C574        H579   1.084       .  S
C575        C576   1.413       .  A
C576        N577   1.428       .  S
N577        O581   1.262       .  A
N577        O582   1.262       .  A
N580        O584   1.261       .  A
N580        O583   1.262       .  A
C585        C590   1.399       .  A
C585        H592   1.090       .  S
C586        C587   1.408       .  A
C587        C588   1.398       .  A
C587        N594   1.430       .  S
C588        H593   1.088       .  S
C589        C590   1.408       .  A
C590        N591   1.429       .  S
N591        O595   1.262       .  A
N594        O598   1.262       .  A
C599        C600   1.408       .  A
C599        C604   1.403       .  A
C599        H606   1.083       .  S
C600       C1269   1.419   1_655  A
C601       C1268   1.419       .  A
C601        C602   1.398       .  A
C601        N608   1.430       .  S
C602       C1271   1.399       .  A
C602        H607   1.083       .  S
C603       C1270   1.399   1_655  A
C603        C604   1.408       .  A
C604        N605   1.429       .  S
N605        O609   1.262       .  A
N605        O610   1.262       .  A
N608        O612   1.262       .  A
N608        O611   1.262       .  A
C613       C1282   1.403       .  A
C613        C618   1.404       .  A
C613        H620   1.083       .  S
C614       C1281   1.403   1_455  A
C614        C615   1.409       .  A
C615        C616   1.405       .  A
C615        N622   1.429       .  S
C616        C617   1.411       .  A
C616        H621   1.083       .  S
C617       C1286   1.417   1_455  A
C618       C1285   1.417       .  A
C618        N619   1.428       .  S
N619        O623   1.262       .  A
N619       O1292   1.262       .  A
N622        O626   1.262       .  A
N622       O1293   1.262       .  A
O624       N1287   1.262       .  A
O625       N1290   1.262       .  A
C627        C632   1.405       .  A
C627        H634   1.080       .  S
C628        C629   1.423       .  A
C629        C630   1.406       .  A
C629        N636   1.439       .  S
C630        C631   1.408       .  A
C630        H635   1.082       .  S
C632        N633   1.438       .  S
N633        O637   1.263       .  A
N633        O638   1.261       .  A
N636        O640   1.262       .  A
N636        O639   1.263       .  A
C641        C646   1.404       .  A
C641        H648   1.083       .  S
C642        C643   1.423       .  A
C643        C644   1.406       .  A
C643        N650   1.436       .  S
C644        C645   1.407       .  A
C644        H649   1.080       .  S
C646        N647   1.437       .  S
N647        O651   1.263       .  A
N647        O652   1.261       .  A
N650        O654   1.262       .  A
N650        O653   1.263       .  A
C655        C656   1.403       .  A
C655        C660   1.399       .  A
C655        H662   1.086       .  S
C656        C991   1.408       .  A
C657        C990   1.408   1_455  A
C657        C658   1.403       .  A
C657        N664   1.428       .  S
C658       C1327   1.404   1_545  A
C658        H663   1.087       .  S
C659       C1326   1.404   1_565  A
C660        N661   1.429       .  S
N661        O665   1.262       .  A
N664        O668   1.261       .  A
C669        C671   1.536       .  S
C669        C673   1.539       .  S
C669       C1006   1.548       .  S
C669        C976   1.540       .  S
C670        C674   1.539       .  S
C670        C676   1.537       .  S
C670       C1009   1.554       .  S
C670        C962   1.543       .  S
C671       C1013   1.379       .  A
C672       C1003   1.547   1_545  S
C672        C683   1.384       .  A
C673        C687   1.381       .  A
C674       C1011   1.379       .  A
C675       C1004   1.555   1_545  S
C675        C681   1.383       .  A
C676        C684   1.380       .  A
C677       C1008   1.379       .  A
C677        N678   1.358   1_655  A
C677        H690   1.077       .  S
N678        C990   1.438   1_455  S
C679       C1005   1.379       .  A
C679        H680   1.085       .  S
C681        H691   1.083       .  S
N682        C683   1.360       .  A
N682        C948   1.443       .  S
C683        H689   1.080       .  S
C684        H686   1.082       .  S
N685        C687   1.354       .  A
N685        C937   1.438       .  S
C687        H688   1.082       .  S
C692        C694   1.535   1_565  S
C692        C696   1.532   1_565  S
C692       C1029   1.546       .  S
C692       C1313   1.543       .  S
C693        C697   1.542   1_565  S
C693        C699   1.549   1_565  S
C693       C1032   1.538       .  S
C693       C1299   1.545       .  S
C694       C1036   1.375       .  A
C694        C697   1.395       .  A
C695       C1026   1.547       .  S
C695        C706   1.383       .  A
C695        C698   1.399       .  A
C696        C710   1.374       .  A
C696        C699   1.399       .  A
C697       C1034   1.380       .  A
C698       C1027   1.538       .  S
C698        C704   1.377       .  A
C699        C707   1.381       .  A
C700       C1031   1.380       .  A
C700        N701   1.356       .  A
C700        H713   1.077       .  S
N701        C702   1.355       .  A
N701        C923   1.432       .  S
C702       C1028   1.376       .  A
C702        H703   1.087       .  S
C704        N705   1.356       .  A
C704        H714   1.082       .  S
N705        C706   1.360       .  A
N705        C892   1.444       .  S
C706        H712   1.081       .  S
C707        N708   1.356       .  A
C707        H709   1.079       .  S
N708        C710   1.349       .  A
N708        C906   1.427       .  S
C710        H711   1.083       .  S
C715        C717   1.529   1_545  S
C715        C719   1.552       .  S
C715       C1052   1.541   1_545  S
C715       C1212   1.542       .  S
C716        C720   1.532   1_545  S
C716        C722   1.553       .  S
C716       C1055   1.540   1_545  S
C716       C1198   1.542       .  S
C717       C1059   1.380       .  A
C718       C1049   1.541       .  S
C718        C729   1.379       .  A
C719        C733   1.384       .  A
C720       C1057   1.378       .  A
C721       C1050   1.540       .  S
C721        C727   1.378       .  A
C722        C730   1.387       .  A
C723       C1054   1.379       .  A
C723        N724   1.357       .  A
C723        H736   1.084       .  S
N724        C993   1.439       .  S
C725       C1051   1.379       .  A
C725        H726   1.080       .  S
C727        H737   1.090       .  S
N728        C729   1.359       .  A
N728        C836   1.441       .  S
C729        H735   1.072       .  S
C730        H732   1.081       .  S
N731        C733   1.354       .  A
N731        C850   1.445       .  S
C733        H734   1.081       .  S
C738        C740   1.530       .  S
C738        C742   1.553       .  S
C738       C1075   1.539       .  S
C738        C881   1.541       .  S
C739        C743   1.530       .  S
C739        C745   1.548       .  S
C739       C1078   1.542       .  S
C739        C867   1.543       .  S
C740       C1082   1.376       .  A
C740        C743   1.388       .  A
C741       C1072   1.540       .  S
C741        C752   1.379       .  A
C741        C744   1.397       .  A
C742        C756   1.386       .  A
C742        C745   1.408       .  A
C743       C1080   1.375       .  A
C744       C1073   1.543       .  S
C744        C750   1.380       .  A
C745        C753   1.379       .  A
C746       C1077   1.375       .  A
C746        N747   1.357       .  A
C746        H759   1.090       .  S
N747        C748   1.356       .  A
N747        C920   1.434       .  S
C748       C1074   1.376       .  A
C748        H749   1.075       .  S
C750        N751   1.357       .  A
C750        H760   1.077       .  S
N751        C752   1.357       .  A
N751        C822   1.439       .  S
C752        H758   1.087       .  S
C753        N754   1.355       .  A
C753        H755   1.083       .  S
N754        C756   1.358       .  A
N754        C808   1.445       .  S
C756        H757   1.079       .  S
Zn761       O765   1.950       .  S
Zn761       O766   1.989       .  S
Zn761       O770   2.017       .  S
Zn761       O777   2.026   1_556  S
Zn762       O765   1.951       .  S
Zn762       O767   2.017       .  S
Zn762       O769   1.996       .  S
Zn762       O773   1.996   1_556  S
Zn763       O768   2.041       .  S
Zn763       O771   2.024       .  S
Zn763       O774   1.989       .  S
Zn764       O772   2.000       .  S
Zn764       O775   2.036       .  S
Zn764       O776   2.044       .  S
O766        C778   1.270       .  A
O767        C779   1.273       .  A
O769        C778   1.271       .  A
O770        C780   1.274       .  A
O772        C781   1.272   1_554  A
O773        C782   1.270       .  A
O774        C781   1.270       .  A
O777        C783   1.274       .  A
C778        C804   1.444       .  S
C779        C839   1.494       .  S
C780        C853   1.497       .  S
C781        C801   1.443       .  S
C782        C934   1.492       .  S
C783        C951   1.500       .  S
Zn784       O788   1.949       .  S
Zn784       O789   2.002       .  S
Zn784       O793   2.023   1_556  S
Zn784       O800   2.012       .  S
Zn785       O788   1.943       .  S
Zn785       O790   1.977   1_556  S
Zn785       O792   1.981       .  S
Zn785       O796   2.003       .  S
Zn786       O788   1.959   1_554  S
Zn786       O791   2.013       .  S
Zn786       O794   2.037       .  S
Zn786       O797   2.001       .  S
Zn787       O788   1.957       .  S
Zn787       O795   1.986       .  S
Zn787       O798   2.025       .  S
Zn787       O799   2.028       .  S
O789        C801   1.272       .  A
O790        C802   1.269       .  A
O791        C803   1.274       .  A
O792        C801   1.268       .  A
O793        C803   1.273       .  A
O794        C802   1.274       .  A
O795        C804   1.270       .  A
O796        C805   1.270       .  A
O797        C804   1.272   1_554  A
O798        C805   1.275       .  A
O799        C806   1.274       .  A
O800        C806   1.274       .  A
C802        C909   1.480       .  S
C803        C895   1.491       .  S
C805        C825   1.492       .  S
C806        C811   1.491       .  S
C807        C808   1.405       .  A
C807        C812   1.403       .  A
C807        H814   1.085       .  S
C808        C809   1.414       .  A
C809        C810   1.401       .  A
C809        N816   1.432       .  S
C810        C811   1.406       .  A
C810        H815   1.085       .  S
C811        C812   1.416       .  A
C812        N813   1.429       .  S
N813        O817   1.262       .  A
N813        O818   1.262       .  A
N816        O820   1.263       .  A
N816        O819   1.262       .  A
C821        C822   1.401       .  A
C821        C826   1.402       .  A
C821        H828   1.086       .  S
C822        C823   1.411       .  A
C823        C824   1.401       .  A
C823        N830   1.432       .  S
C824        C825   1.406       .  A
C824        H829   1.085       .  S
C825        C826   1.419       .  A
C826        N827   1.430       .  S
N827        O831   1.262       .  A
N827        O832   1.262       .  A
N830        O834   1.262       .  A
N830        O833   1.263       .  A
C835        C836   1.402       .  A
C835        C840   1.401       .  A
C835        H842   1.078       .  S
C837        C838   1.403       .  A
C837        N844   1.431       .  S
C838        H843   1.080       .  S
C839        C840   1.417       .  A
C840        N841   1.429       .  S
N841        O845   1.262       .  A
N841        O846   1.262       .  A
N844        O848   1.262       .  A
N844        O847   1.262       .  A
C849        C854   1.405       .  A
C849        H856   1.084       .  S
C850        C851   1.413       .  A
C851        C852   1.402       .  A
C851        N858   1.432       .  S
C852        C853   1.409       .  A
C852        H857   1.084       .  S
C854        N855   1.430       .  S
N855        O859   1.262       .  A
N855        O860   1.262       .  A
N858        O862   1.262       .  A
N858        O861   1.262       .  A
C863       C1198   1.408       .  A
C863        C868   1.406       .  A
C863        H870   1.080       .  S
C864       C1050   1.543       .  S
C864       C1197   1.408       .  A
C864        C865   1.422       .  A
C865        C866   1.405       .  A
C865        N872   1.435       .  S
C866        C867   1.407       .  A
C866        H871   1.081       .  S
C867       C1202   1.422       .  A
C868       C1201   1.422       .  A
C868        N869   1.437       .  S
N869        O873   1.263       .  A
N869        O874   1.262       .  A
N872        O876   1.261       .  A
N872        O875   1.263       .  A
C877       C1212   1.404       .  A
C877        C882   1.403       .  A
C877        H884   1.081       .  S
C878       C1049   1.541       .  S
C878       C1211   1.404       .  A
C878        C879   1.423       .  A
C879        C880   1.407       .  A
C879        N886   1.437       .  S
C880        C881   1.407       .  A
C880        H885   1.081       .  S
C881       C1216   1.422       .  A
C882       C1215   1.422       .  A
C882        N883   1.435       .  S
N883        O887   1.262       .  A
N883        O888   1.261       .  A
N886        O890   1.263       .  A
N886        O889   1.261       .  A
C891        C892   1.406       .  A
C891        C896   1.403       .  A
C891        H898   1.083       .  S
C892        C893   1.411       .  A
C893        C894   1.400       .  A
C893        N900   1.431       .  S
C894        C895   1.407       .  A
C894        H899   1.083       .  S
C895        C896   1.416       .  A
C896        N897   1.430       .  S
N897        O901   1.262       .  A
N897        O902   1.262       .  A
N900        O904   1.262       .  A
N900        O903   1.262       .  A
C905        C906   1.400       .  A
C905        C910   1.403       .  A
C905        H912   1.084       .  S
C906        C907   1.401       .  A
C907        C908   1.395       .  A
C907        N914   1.429       .  S
C908        C909   1.407       .  A
C908        H913   1.085       .  S
C909        C910   1.413       .  A
C910        N911   1.429       .  S
N911        O915   1.262       .  A
N911        O916   1.262       .  A
N914        O918   1.262       .  A
N914        O917   1.262       .  A
C919       C1254   1.402       .  A
C919        C924   1.400       .  A
C919        H926   1.088       .  S
C920       C1253   1.402       .  A
C920        C921   1.408   1_545  A
C921        C922   1.398       .  A
C921        N928   1.430       .  S
C922       C1257   1.401   1_565  A
C922        H927   1.090       .  S
C923       C1256   1.401       .  A
C923        C924   1.408       .  A
C924        N925   1.429       .  S
N925        O929   1.262       .  A
N925       O1264   1.262       .  A
N928        O932   1.262       .  A
N928       O1265   1.262       .  A
O930       N1259   1.262       .  A
O931       N1262   1.262       .  A
C933        C934   1.408       .  A
C933        C938   1.403       .  A
C933        H940   1.084       .  S
C935        C936   1.398       .  A
C935        N942   1.430       .  S
C936        H941   1.084       .  S
C937        C938   1.409       .  A
C938        N939   1.429       .  S
N939        O943   1.262       .  A
N939        O944   1.262       .  A
N942        O946   1.262       .  A
N942        O945   1.262       .  A
C947        C952   1.404       .  A
C947        H954   1.083       .  S
C948        C949   1.408       .  A
C949        C950   1.405       .  A
C949        N956   1.429       .  S
C950        C951   1.411       .  A
C950        H955   1.083       .  S
C952        N953   1.428       .  S
N953        O957   1.262       .  A
N956        O960   1.262       .  A
C961       C1296   1.406   1_545  A
C961        C966   1.405       .  A
C961        H968   1.080       .  S
C962       C1295   1.405       .  A
C962        C963   1.423       .  A
C963        C964   1.406       .  A
C963        N970   1.439       .  S
C964        C965   1.409       .  A
C964        H969   1.082       .  S
C965       C1027   1.545       .  S
C965       C1300   1.424       .  A
C966       C1299   1.424   1_545  A
C966        N967   1.438       .  S
N967        O971   1.263       .  A
N967        O972   1.261   1_545  A
N970        O974   1.262       .  A
N970        O973   1.263       .  A
C975       C1310   1.404   1_545  A
C975        C980   1.404       .  A
C975        H982   1.083       .  S
C976       C1309   1.404       .  A
C976        C977   1.423       .  A
C977        C978   1.406       .  A
C977        N984   1.436       .  S
C978        C979   1.406       .  A
C978        H983   1.081       .  S
C979       C1026   1.543       .  S
C979       C1314   1.425       .  A
C980       C1313   1.424   1_545  A
C980        N981   1.436       .  S
N981        O985   1.263       .  A
N981        O986   1.261       .  A
N984        O988   1.262       .  A
N984        O987   1.263       .  A
C989        C990   1.403   1_565  A
C989        C994   1.399       .  A
C989        H996   1.087       .  S
C991        C992   1.403       .  A
C991        N998   1.428       .  S
C992        H997   1.086       .  S
C993       C1328   1.409       .  A
C994       C1327   1.409   1_655  A
C994        N995   1.429       .  S
N995        O999   1.262       .  A
N995       O1334   1.262       .  A
N998       O1002   1.262       .  A
N998       O1335   1.262       .  A
O1000      N1329   1.262       .  A
O1001      N1332   1.262       .  A
C1003      C1005   1.537   1_565  S
C1003      C1007   1.539       .  S
C1003      C1310   1.540       .  S
C1004      C1008   1.539   1_565  S
C1004      C1010   1.536       .  S
C1004      C1296   1.543       .  S
C1006      C1017   1.384       .  A
C1007      C1021   1.380       .  A
C1009      C1015   1.383       .  A
C1010      C1018   1.380       .  A
C1011      N1012   1.357   1_655  A
C1011      H1024   1.079       .  S
N1012      C1324   1.438   1_455  S
C1013      H1014   1.085       .  S
C1015      H1025   1.083       .  S
N1016      C1017   1.360       .  A
N1016      C1282   1.444       .  S
C1017      H1023   1.080       .  S
C1018      H1020   1.081       .  S
N1019      C1021   1.354       .  A
N1019      C1271   1.436       .  S
C1021      H1022   1.083       .  S
C1026      C1028   1.535       .  S
C1026      C1030   1.532       .  S
C1027      C1031   1.542       .  S
C1027      C1033   1.549       .  S
C1028      C1031   1.395       .  A
C1029      C1040   1.382       .  A
C1029      C1032   1.398       .  A
C1030      C1044   1.373       .  A
C1030      C1033   1.399       .  A
C1032      C1038   1.377       .  A
C1033      C1041   1.381       .  A
C1034      N1035   1.357       .  A
C1034      H1047   1.075       .  S
N1035      C1036   1.355       .  A
N1035      C1257   1.433       .  S
C1036      H1037   1.089       .  S
C1038      N1039   1.356       .  A
C1038      H1048   1.079       .  S
N1039      C1040   1.359       .  A
N1039      C1226   1.444       .  S
C1040      H1046   1.085       .  S
C1041      N1042   1.356       .  A
C1041      H1043   1.076       .  S
N1042      C1044   1.349       .  A
N1042      C1240   1.427       .  S
C1044      H1045   1.085       .  S
C1049      C1051   1.528       .  S
C1049      C1053   1.552       .  S
C1050      C1054   1.532       .  S
C1050      C1056   1.553       .  S
C1052      C1063   1.377       .  A
C1053      C1067   1.384       .  A
C1055      C1061   1.380       .  A
C1056      C1064   1.388       .  A
C1057      N1058   1.357   1_655  A
C1057      H1070   1.085       .  S
N1058      C1327   1.439       .  S
C1059      H1060   1.080       .  S
C1061      H1071   1.070       .  S
N1062      C1063   1.357       .  A
N1062      C1170   1.441       .  S
C1063      H1069   1.091       .  S
C1064      H1066   1.080       .  S
N1065      C1067   1.354       .  A
N1065      C1184   1.446       .  S
C1067      H1068   1.082       .  S
C1072      C1074   1.530       .  S
C1072      C1076   1.553   1_545  S
C1072      C1215   1.541       .  S
C1073      C1077   1.529       .  S
C1073      C1079   1.547   1_545  S
C1073      C1201   1.543       .  S
C1074      C1077   1.388       .  A
C1075      C1086   1.378       .  A
C1075      C1078   1.396       .  A
C1076      C1090   1.386       .  A
C1076      C1079   1.406       .  A
C1078      C1084   1.379       .  A
C1079      C1087   1.377       .  A
C1080      N1081   1.357       .  A
C1080      H1093   1.088       .  S
N1081      C1082   1.356       .  A
N1081      C1254   1.433       .  S
C1082      H1083   1.077       .  S
C1084      N1085   1.357       .  A
C1084      H1094   1.078       .  S
N1085      C1086   1.358       .  A
N1085      C1156   1.438       .  S
C1086      H1092   1.085       .  S
C1087      N1088   1.355       .  A
C1087      H1089   1.087       .  S
N1088      C1090   1.360       .  A
N1088      C1142   1.446       .  S
C1090      H1091   1.076       .  S
Zn1095     O1099   1.949       .  S
Zn1095     O1100   1.989       .  S
Zn1095     O1104   2.016       .  S
Zn1095     O1111   2.027   1_556  S
Zn1096     O1099   1.951       .  S
Zn1096     O1101   2.018       .  S
Zn1096     O1103   1.997       .  S
Zn1096     O1107   1.994   1_556  S
Zn1097     O1102   2.037       .  S
Zn1097     O1105   2.024       .  S
Zn1097     O1108   1.987       .  S
Zn1098     O1106   2.000       .  S
Zn1098     O1109   2.036       .  S
Zn1098     O1110   2.045       .  S
O1100      C1112   1.270       .  A
O1101      C1113   1.273       .  A
O1103      C1112   1.271       .  A
O1104      C1114   1.274       .  A
O1106      C1115   1.272   1_554  A
O1107      C1116   1.270       .  A
O1108      C1115   1.270       .  A
O1111      C1117   1.274       .  A
C1112      C1138   1.444       .  S
C1113      C1173   1.495       .  S
C1114      C1187   1.496       .  S
C1115      C1135   1.443       .  S
C1116      C1268   1.491       .  S
C1117      C1285   1.500       .  S
Zn1118     O1122   1.948       .  S
Zn1118     O1123   2.001       .  S
Zn1118     O1127   2.022   1_556  S
Zn1118     O1134   2.010       .  S
Zn1119     O1122   1.941       .  S
Zn1119     O1124   1.973   1_556  S
Zn1119     O1126   1.980       .  S
Zn1119     O1130   2.004       .  S
Zn1120     O1122   1.959   1_554  S
Zn1120     O1125   2.011       .  S
Zn1120     O1128   2.037       .  S
Zn1120     O1131   2.001       .  S
Zn1121     O1122   1.956       .  S
Zn1121     O1129   1.987       .  S
Zn1121     O1132   2.022       .  S
Zn1121     O1133   2.028       .  S
O1123      C1135   1.272       .  A
O1124      C1136   1.269       .  A
O1125      C1137   1.274       .  A
O1126      C1135   1.268       .  A
O1127      C1137   1.273       .  A
O1128      C1136   1.274       .  A
O1129      C1138   1.270       .  A
O1130      C1139   1.270       .  A
O1131      C1138   1.272   1_554  A
O1132      C1139   1.275       .  A
O1133      C1140   1.274       .  A
O1134      C1140   1.274       .  A
C1136      C1243   1.481       .  S
C1137      C1229   1.490       .  S
C1139      C1159   1.491       .  S
C1140      C1145   1.491       .  S
C1141      C1142   1.405       .  A
C1141      C1146   1.403       .  A
C1141      H1148   1.087       .  S
C1142      C1143   1.415       .  A
C1143      C1144   1.400       .  A
C1143      N1150   1.431       .  S
C1144      C1145   1.406       .  A
C1144      H1149   1.086       .  S
C1145      C1146   1.415       .  A
C1146      N1147   1.429       .  S
N1147      O1151   1.262       .  A
N1147      O1152   1.262       .  A
N1150      O1154   1.263       .  A
N1150      O1153   1.262       .  A
C1155      C1156   1.401       .  A
C1155      C1160   1.402       .  A
C1155      H1162   1.086       .  S
C1156      C1157   1.410       .  A
C1157      C1158   1.400       .  A
C1157      N1164   1.433       .  S
C1158      C1159   1.405       .  A
C1158      H1163   1.085       .  S
C1159      C1160   1.419       .  A
C1160      N1161   1.431       .  S
N1161      O1165   1.262       .  A
N1161      O1166   1.262       .  A
N1164      O1168   1.262       .  A
N1164      O1167   1.263       .  A
C1169      C1170   1.401       .  A
C1169      C1174   1.400       .  A
C1169      H1176   1.090       .  S
C1171      C1172   1.403       .  A
C1171      N1178   1.431       .  S
C1172      H1177   1.087       .  S
C1173      C1174   1.417       .  A
C1174      N1175   1.429       .  S
N1175      O1179   1.262       .  A
N1175      O1180   1.262       .  A
N1178      O1182   1.262       .  A
N1178      O1181   1.262       .  A
C1183      C1188   1.404       .  A
C1183      H1190   1.085       .  S
C1184      C1185   1.413       .  A
C1185      C1186   1.402       .  A
C1185      N1192   1.432       .  S
C1186      C1187   1.408       .  A
C1186      H1191   1.084       .  S
C1188      N1189   1.430       .  S
N1189      O1193   1.262       .  A
N1189      O1194   1.262       .  A
N1192      O1196   1.262       .  A
N1192      O1195   1.262       .  A
C1197      C1202   1.406       .  A
C1197      H1204   1.080       .  S
C1198      C1199   1.421   1_545  A
C1199      C1200   1.405       .  A
C1199      N1206   1.436       .  S
C1200      C1201   1.407   1_565  A
C1200      H1205   1.081       .  S
C1202      N1203   1.437       .  S
N1203      O1207   1.263       .  A
N1203      O1208   1.261       .  A
N1206      O1210   1.261       .  A
N1206      O1209   1.263       .  A
C1211      C1216   1.404       .  A
C1211      H1218   1.081       .  S
C1212      C1213   1.423   1_545  A
C1213      C1214   1.408       .  A
C1213      N1220   1.437       .  S
C1214      C1215   1.407   1_565  A
C1214      H1219   1.081       .  S
C1216      N1217   1.435       .  S
N1217      O1221   1.262       .  A
N1217      O1222   1.261       .  A
N1220      O1224   1.263       .  A
N1220      O1223   1.261       .  A
C1225      C1226   1.406       .  A
C1225      C1230   1.402       .  A
C1225      H1232   1.085       .  S
C1226      C1227   1.412       .  A
C1227      C1228   1.399       .  A
C1227      N1234   1.431       .  S
C1228      C1229   1.406       .  A
C1228      H1233   1.085       .  S
C1229      C1230   1.416       .  A
C1230      N1231   1.430       .  S
N1231      O1235   1.262       .  A
N1231      O1236   1.262       .  A
N1234      O1238   1.262       .  A
N1234      O1237   1.262       .  A
C1239      C1240   1.401       .  A
C1239      C1244   1.403       .  A
C1239      H1246   1.083       .  S
C1240      C1241   1.401       .  A
C1241      C1242   1.394       .  A
C1241      N1248   1.430       .  S
C1242      C1243   1.408       .  A
C1242      H1247   1.084       .  S
C1243      C1244   1.413       .  A
C1244      N1245   1.429       .  S
N1245      O1249   1.262       .  A
N1245      O1250   1.262       .  A
N1248      O1252   1.262       .  A
N1248      O1251   1.262       .  A
C1253      C1258   1.399       .  A
C1253      H1260   1.090       .  S
C1254      C1255   1.408       .  A
C1255      C1256   1.398       .  A
C1255      N1262   1.430       .  S
C1256      H1261   1.088       .  S
C1257      C1258   1.408       .  A
C1258      N1259   1.429       .  S
N1259      O1263   1.262       .  A
N1262      O1266   1.262       .  A
C1267      C1268   1.408       .  A
C1267      C1272   1.403       .  A
C1267      H1274   1.083       .  S
C1269      C1270   1.398       .  A
C1269      N1276   1.430       .  S
C1270      H1275   1.083       .  S
C1271      C1272   1.408       .  A
C1272      N1273   1.429       .  S
N1273      O1277   1.262       .  A
N1273      O1278   1.262       .  A
N1276      O1280   1.262       .  A
N1276      O1279   1.262       .  A
C1281      C1286   1.404       .  A
C1281      H1288   1.083       .  S
C1282      C1283   1.409       .  A
C1283      C1284   1.405       .  A
C1283      N1290   1.429       .  S
C1284      C1285   1.411       .  A
C1284      H1289   1.083       .  S
C1286      N1287   1.428       .  S
N1287      O1291   1.262       .  A
N1290      O1294   1.262       .  A
C1295      C1300   1.405       .  A
C1295      H1302   1.080       .  S
C1296      C1297   1.423       .  A
C1297      C1298   1.406       .  A
C1297      N1304   1.439       .  S
C1298      C1299   1.408       .  A
C1298      H1303   1.082       .  S
C1300      N1301   1.438       .  S
N1301      O1305   1.263       .  A
N1301      O1306   1.261       .  A
N1304      O1308   1.262       .  A
N1304      O1307   1.263       .  A
C1309      C1314   1.404       .  A
C1309      H1316   1.083       .  S
C1310      C1311   1.423       .  A
C1311      C1312   1.406       .  A
C1311      N1318   1.436       .  S
C1312      C1313   1.406       .  A
C1312      H1317   1.080       .  S
C1314      N1315   1.437       .  S
N1315      O1319   1.263       .  A
N1315      O1320   1.261       .  A
N1318      O1322   1.262       .  A
N1318      O1321   1.263       .  A
C1323      C1324   1.403       .  A
C1323      C1328   1.400       .  A
C1323      H1330   1.085       .  S
C1325      C1326   1.403       .  A
C1325      N1332   1.428       .  S
C1326      H1331   1.086       .  S
C1328      N1329   1.429       .  S
N1329      O1333   1.262       .  A
N1332      O1336   1.261       .  A
