geometry optimzed in LAMMPS
_audit_creation_date              2020-11-30 
_audit_creation_method            'lammps2cif' 
_symmetry_space_group_name_H-M    'P1' 
_symmetry_Int_Tables_number       1 
_symmetry_cell_setting            triclinic 
loop_ 
_symmetry_equiv_pos_as_xyz 
  x,y,z 
_cell_length_a                    70.36630593 
_cell_length_b                    70.4224243091532 
_cell_length_c                    70.49055012888752 
_cell_angle_alpha                 90.85302401465088 
_cell_angle_beta                  90.57791254860403 
_cell_angle_gamma                 87.73675658799661 
loop_ 
_atom_site_label 
_atom_site_type_symbol 
_atom_site_fract_x 
_atom_site_fract_y 
_atom_site_fract_z 
_atom_site_charge 
N1          N  0.69179784  0.43286861  0.34712960    -0.26800
N2          N  0.69733053  0.44834199  0.33866951    -0.34600
C3          C  0.69512473  0.44630875  0.31984927     0.01600
C4          C  0.68814995  0.42862741  0.31600079     0.07600
C5          C  0.68622332  0.42036611  0.33361875    -0.05500
H6          H  0.69945356  0.45654886  0.30961270     0.08300
H7          H  0.68144601  0.40626552  0.33637800     0.09500
Cu8        Cu  0.71163277  0.47019043  0.35158335     0.44200
Cu9        Cu  0.69348775  0.42972009  0.37669630     0.42000
Cu10       Cu  0.73168344  0.45795387  0.39588301     0.43900
N11         N  0.73345262  0.48509517  0.36376503    -0.34200
N12         N  0.74164978  0.47973708  0.37984168    -0.28400
C13         C  0.75694593  0.49017688  0.38311118    -0.04500
C14         C  0.75844566  0.50273685  0.36834033     0.07700
C15         C  0.74326774  0.49917466  0.35633219     0.01500
H16         H  0.76658228  0.48831180  0.39505094     0.09100
H17         H  0.74031700  0.50542274  0.34263447     0.08200
N18         N  0.71532744  0.44075139  0.41207247    -0.35600
N19         N  0.70042561  0.43159895  0.40570824    -0.27800
C20         C  0.69108188  0.42501065  0.42075990    -0.03000
C21         C  0.70084873  0.43003513  0.43720473     0.05600
C22         C  0.71614131  0.43985912  0.43107371     0.03700
H23         H  0.67792263  0.41759379  0.41984660     0.08800
H24         H  0.72633939  0.44712064  0.43985947     0.07600
N25         N  0.56241317  0.68693912  0.47315060    -0.26800
N26         N  0.55533913  0.67763252  0.48744734    -0.34600
C27         C  0.53650664  0.67615259  0.48500027     0.01600
C28         C  0.53109484  0.68520569  0.46848318     0.07600
C29         C  0.54787627  0.69200255  0.46130669    -0.05500
H30         H  0.52735199  0.66930118  0.49482268     0.08300
H31         H  0.54940013  0.69983679  0.44836212     0.09500
Cu32       Cu  0.57098494  0.66751956  0.51018586     0.44200
Cu33       Cu  0.59197601  0.69110442  0.47112498     0.42000
Cu34       Cu  0.62002604  0.67344515  0.51324242     0.43900
N35         N  0.58762074  0.65551678  0.53126674    -0.34200
N36         N  0.60611637  0.65760991  0.53277817    -0.28400
C37         C  0.61328286  0.64566540  0.54605218    -0.04500
C38         C  0.59842787  0.63551835  0.55295096     0.07700
C39         C  0.58242020  0.64223818  0.54334240     0.01500
H40         H  0.62828146  0.64329199  0.54910453     0.09100
H41         H  0.56824314  0.63689481  0.54401976     0.08200
N42         N  0.63138055  0.68501485  0.48931742    -0.35600
N43         N  0.62199660  0.69104576  0.47401074    -0.27800
C44         C  0.63490407  0.69611517  0.46109933    -0.03000
C45         C  0.65306983  0.69304795  0.46874375     0.05600
C46         C  0.65013772  0.68606984  0.48659110     0.03700
H47         H  0.63135634  0.70132134  0.44709274     0.08800
H48         H  0.66086653  0.68156891  0.49684007     0.07600
N49         N  0.49876528  0.84081030  0.65447418    -0.26800
N50         N  0.48784184  0.84778709  0.64063260    -0.34600
C51         C  0.49177693  0.86603576  0.63785067     0.01600
C52         C  0.50573150  0.87115990  0.65059698     0.07600
C53         C  0.50981541  0.85483386  0.66104280    -0.05500
H54         H  0.48455789  0.87507044  0.62755605     0.08300
H55         H  0.52014854  0.85324901  0.67243278     0.09500
Cu56       Cu  0.46673945  0.83345449  0.62650018     0.44200
Cu57       Cu  0.49807081  0.81205369  0.66280571     0.42000
Cu58       Cu  0.45673312  0.78809601  0.64283415     0.43900
N59         N  0.44388067  0.81866936  0.61634896    -0.34200
N60         N  0.43954710  0.80205293  0.62316181    -0.28400
C61         C  0.42401457  0.79591694  0.61404997    -0.04500
C62         C  0.41841167  0.80934863  0.60076723     0.07700
C63         C  0.43134997  0.82356044  0.60258174     0.01500
H64         H  0.41778312  0.78235587  0.61637779     0.09100
H65         H  0.43176802  0.83641333  0.59440680     0.08200
N66         N  0.47870834  0.77439842  0.65749320    -0.35600
N67         N  0.49382211  0.78252085  0.66485838    -0.27800
C68         C  0.50569519  0.76865314  0.67183619    -0.03000
C69         C  0.49761941  0.75119646  0.66842093     0.05600
C70         C  0.48061232  0.75546627  0.65935623     0.03700
H71         H  0.51945636  0.77101295  0.67823230     0.08800
H72         H  0.47052320  0.74545565  0.65398019     0.07600
N73         N  0.66338865  0.42737340  0.90854340    -0.26800
N74         N  0.64689661  0.43444017  0.91493095    -0.34600
C75         C  0.64656587  0.43324114  0.93394802     0.01600
C76         C  0.66363997  0.42511825  0.94018825     0.07600
C77         C  0.67405268  0.42163170  0.92366930    -0.05500
H78         H  0.63449499  0.43762632  0.94256366     0.08300
H79         H  0.68807386  0.41483569  0.92269943     0.09500
Cu80       Cu  0.62412237  0.44357272  0.89803832     0.44200
Cu81       Cu  0.66912901  0.42412540  0.87905093     0.42000
Cu82       Cu  0.62400506  0.41299032  0.85879517     0.43900
N83         N  0.60206464  0.44440214  0.87834545    -0.34200
N84         N  0.60128088  0.43130798  0.86481372    -0.28400
C85         C  0.58690206  0.43582054  0.85287249    -0.04500
C86         C  0.57829920  0.45277113  0.85899295     0.07700
C87         C  0.58824644  0.45783493  0.87526143     0.01500
H88         H  0.58442589  0.42855625  0.83949559     0.09100
H89         H  0.58644461  0.47088472  0.88344929     0.08200
N90         N  0.64879964  0.41170688  0.84353786    -0.35600
N91         N  0.66525590  0.41798211  0.84967306    -0.27800
C92         C  0.67653564  0.42002351  0.83435804    -0.03000
C93         C  0.66653475  0.41453344  0.81806123     0.05600
C94         C  0.64914896  0.40933438  0.82466006     0.03700
H95         H  0.69062231  0.42563985  0.83492647     0.08800
H96         H  0.63687676  0.40572951  0.81618094     0.07600
N97         N  0.55334719  0.28170808  0.65490997    -0.26800
N98         N  0.56902027  0.27340266  0.66199688    -0.34600
C99         C  0.56927975  0.25474934  0.65814687     0.01600
C100        C  0.55300488  0.25057525  0.64827511     0.07600
C101        C  0.54298819  0.26798511  0.64652355    -0.05500
H102        H  0.58037284  0.24478003  0.66285466     0.08300
H103        H  0.52937277  0.27047286  0.63954664     0.09500
Cu104      Cu  0.58961100  0.28562079  0.67840281     0.44200
Cu105      Cu  0.54818314  0.31164896  0.65691872     0.42000
Cu106      Cu  0.58638469  0.33363051  0.68504327     0.43900
N107        N  0.60631842  0.29844887  0.69845280    -0.34200
N108        N  0.60475365  0.31698368  0.70113752    -0.28400
C109        C  0.61331344  0.32155552  0.71755290    -0.04500
C110        C  0.62061439  0.30500642  0.72560497     0.07700
C111        C  0.61609245  0.29058044  0.71303407     0.01500
H112        H  0.61243779  0.33554652  0.72411401     0.09100
H113        H  0.61749216  0.27546316  0.71552741     0.08200
N114        N  0.56546310  0.34859860  0.67033880    -0.35600
N115        N  0.55108297  0.34143019  0.66071444    -0.27800
C116        C  0.54030346  0.35614125  0.65369745    -0.03000
C117        C  0.54860071  0.37308782  0.65902055     0.05600
C118        C  0.56442848  0.36760856  0.66951928     0.03700
H119        H  0.52769738  0.35463397  0.64498148     0.08800
H120        H  0.57451551  0.37680343  0.67628265     0.07600
N121        N  0.87712761  0.22328642  0.99049630    -0.26800
N122        N  0.86881698  0.21745525  0.00596775    -0.34600
C123        C  0.85012027  0.21615740  0.00275116     0.01600
C124        C  0.84605915  0.22138244  0.98430502     0.07600
C125        C  0.86359176  0.22585506  0.97683863    -0.05500
H126        H  0.84005997  0.21263707  0.01352298     0.08300
H127        H  0.86620118  0.23106255  0.96278037     0.09500
Cu128      Cu  0.88149351  0.21586190  0.03236863     0.44200
Cu129      Cu  0.90646282  0.22840842  0.99091909     0.42000
Cu130      Cu  0.92115538  0.24330480  0.03944167     0.43900
N131        N  0.88633822  0.22985261  0.05762228    -0.34200
N132        N  0.90003839  0.24196232  0.05987292    -0.28400
C133        C  0.89557173  0.25381952  0.07453544    -0.04500
C134        C  0.87809053  0.24888498  0.08161881     0.07700
C135        C  0.87293604  0.23344415  0.07068003     0.01500
H136        H  0.90330665  0.26632862  0.07828868     0.09100
H137        H  0.85926601  0.22695462  0.07040121     0.08200
N138        N  0.93960235  0.23902816  0.01659028    -0.35600
N139        N  0.93480184  0.23310440  0.99931572    -0.27800
C140        C  0.95070434  0.23156185  0.98865155    -0.03000
C141        C  0.96607809  0.23704420  0.99967289     0.05600
C142        C  0.95841435  0.24165659  0.01721882     0.03700
H143        H  0.95093918  0.22749926  0.97379322     0.08800
H144        H  0.96598491  0.24673452  0.02960810     0.07600
N145        N  0.28148035  0.97050225  0.75267075    -0.26800
N146        N  0.29583047  0.97939006  0.74530608    -0.34600
C147        C  0.29317177  0.98115497  0.72652931     0.01600
C148        C  0.27646317  0.97277946  0.72140480     0.07600
C149        C  0.26934771  0.96611725  0.73836132    -0.05500
H150        H  0.30333280  0.98716791  0.71714455     0.08300
H151        H  0.25657551  0.95828000  0.74006646     0.09500
Cu152      Cu  0.32036588  0.98621696  0.75958944     0.44200
Cu153      Cu  0.28041859  0.96447850  0.78204815     0.42000
Cu154      Cu  0.32730084  0.97091852  0.80586408     0.43900
N155        N  0.34608181  0.98843003  0.77348844    -0.34200
N156        N  0.34918604  0.98214270  0.79081746    -0.28400
C157        C  0.36692052  0.98643859  0.79638954    -0.04500
C158        C  0.37516881  0.99593825  0.78172196     0.07700
C159        C  0.36155299  0.99699976  0.76752063     0.01500
H160        H  0.37275857  0.98414628  0.81046404     0.09100
H161        H  0.36249369  0.00428181  0.75417260     0.08200
N162        N  0.30281580  0.96318834  0.81929948    -0.35600
N163        N  0.28574775  0.96121376  0.81154571    -0.27800
C164        C  0.27367603  0.95650805  0.82545696    -0.03000
C165        C  0.28382914  0.95537159  0.84248564     0.05600
C166        C  0.30212958  0.95963052  0.83789561     0.03700
H167        H  0.25885031  0.95351400  0.82324670     0.08800
H168        H  0.31423857  0.96004586  0.84745871     0.07600
N169        N  0.05962430  0.71454888  0.41630390    -0.26800
N170        N  0.05344428  0.73126313  0.42315741    -0.34600
C171        C  0.03433240  0.73237813  0.42244552     0.01600
C172        C  0.02779603  0.71571151  0.41465858     0.07600
C173        C  0.04426520  0.70471371  0.41076924    -0.05500
H174        H  0.02574602  0.74420309  0.42806451     0.08300
H175        H  0.04493721  0.69019543  0.40551084     0.09500
Cu176      Cu  0.07031994  0.75109327  0.43651823     0.44200
Cu177      Cu  0.08889432  0.70563707  0.41787255     0.42000
Cu178      Cu  0.10844517  0.72773782  0.46012887     0.43900
N179        N  0.08695613  0.76482835  0.45650844    -0.34200
N180        N  0.09967516  0.75526131  0.46687332    -0.28400
C181        C  0.10819435  0.76728520  0.47889577    -0.04500
C182        C  0.10065590  0.78537399  0.47576333     0.07700
C183        C  0.08731237  0.78338655  0.46136717     0.01500
H184        H  0.12011879  0.76341060  0.48804659     0.09100
H185        H  0.07882080  0.79459309  0.45467561     0.08200
N186        N  0.12371759  0.70867336  0.44316050    -0.35600
N187        N  0.11783942  0.70177185  0.42664340    -0.27800
C188        C  0.13309760  0.69326538  0.41785768    -0.03000
C189        C  0.14901355  0.69479151  0.42969690     0.05600
C190        C  0.14234882  0.70454302  0.44550587     0.03700
H191        H  0.13269365  0.68659788  0.40394351     0.08800
H192        H  0.15075463  0.70938664  0.45743918     0.07600
N193        N  0.97032852  0.79477421  0.27472499    -0.26800
N194        N  0.96792382  0.78870724  0.25701843    -0.34600
C195        C  0.96965342  0.76968373  0.25618383     0.01600
C196        C  0.97270107  0.76288477  0.27418427     0.07600
C197        C  0.97301337  0.77919706  0.28575930    -0.05500
H198        H  0.96637291  0.76126741  0.24369121     0.08300
H199        H  0.97430368  0.77962470  0.30106290     0.09500
Cu200      Cu  0.95255663  0.80341867  0.23671134     0.44200
Cu201      Cu  0.96783024  0.82454566  0.28179355     0.42000
Cu202      Cu  0.92895188  0.84397037  0.25466265     0.43900
N203        N  0.92362614  0.80798012  0.23322304    -0.34200
N204        N  0.91467009  0.82308123  0.24062350    -0.28400
C205        C  0.89617128  0.81961281  0.24240962    -0.04500
C206        C  0.89333476  0.80120357  0.23619676     0.07700
C207        C  0.91105509  0.79432974  0.23025563     0.01500
H208        H  0.88623649  0.82875794  0.25023740     0.09100
H209        H  0.91508724  0.77970095  0.22686822     0.08200
N210        N  0.94667555  0.86090285  0.27008868    -0.35600
N211        N  0.96142163  0.85456148  0.28026890    -0.27800
C212        C  0.97038408  0.86995626  0.28728800    -0.03000
C213        C  0.96064082  0.88650735  0.28108587     0.05600
C214        C  0.94573005  0.87995673  0.27032830     0.03700
H215        H  0.98324897  0.86922152  0.29581947     0.08800
H216        H  0.93511965  0.88842268  0.26268375     0.07600
N217        N  0.00676079  0.29507358  0.24102697    -0.26800
N218        N  0.01209081  0.28610541  0.22520872    -0.34600
C219        C  0.00812170  0.26765176  0.22616629     0.01600
C220        C  0.00010553  0.26433561  0.24353517     0.07600
C221        C  0.99948233  0.28208434  0.25270211    -0.05500
H222        H  0.01161479  0.25720044  0.21521743     0.08300
H223        H  0.99419268  0.28525698  0.26679798     0.09500
Cu224      Cu  0.02708846  0.29790944  0.20362934     0.44200
Cu225      Cu  0.01021557  0.32490363  0.24478240     0.42000
Cu226      Cu  0.03869871  0.34605721  0.20681540     0.43900
N227        N  0.04580336  0.30972471  0.18524658    -0.34200
N228        N  0.05002107  0.32781823  0.18607086    -0.28400
C229        C  0.06249448  0.33121543  0.17225784    -0.04500
C230        C  0.06646704  0.31429248  0.16255717     0.07700
C231        C  0.05569146  0.30098112  0.17120981     0.01500
H232        H  0.06847877  0.34485367  0.16971441     0.09100
H233        H  0.05492406  0.28607393  0.16746586     0.08200
N234        N  0.02550836  0.36154400  0.22863713    -0.35600
N235        N  0.01535170  0.35448322  0.24242343    -0.27800
C236        C  0.00882198  0.36919024  0.25349519    -0.03000
C237        C  0.01511705  0.38614104  0.24624393     0.05600
C238        C  0.02562645  0.38057641  0.23053020     0.03700
H239        H  0.99980454  0.36771462  0.26567944     0.08800
H240        H  0.03272670  0.38973982  0.22092084     0.07600
N241        N  0.18588335  0.23952111  0.97732208    -0.26800
N242        N  0.19211619  0.24554685  0.99405608    -0.34600
C243        C  0.21121036  0.24455406  0.99441084     0.01600
C244        C  0.21772312  0.23747959  0.97717557     0.07600
C245        C  0.20121889  0.23429051  0.96663467    -0.05500
H246        H  0.21977961  0.24934220  0.00624108     0.08300
H247        H  0.20047341  0.22952487  0.95199583     0.09500
Cu248      Cu  0.17518099  0.25775122  0.01527120     0.44200
Cu249      Cu  0.15643243  0.24157900  0.97016976     0.42000
Cu250      Cu  0.14014956  0.28553648  0.99290331     0.43900
N251        N  0.15692698  0.27593927  0.03051217    -0.34200
N252        N  0.14516972  0.28796553  0.02166374    -0.28400
C253        C  0.13411795  0.29728234  0.03446766    -0.04500
C254        C  0.13903682  0.29063901  0.05227076     0.07700
C255        C  0.15354965  0.27708210  0.04927424     0.01500
H256        H  0.12215995  0.30674515  0.03092794     0.09100
H257        H  0.16056347  0.26818588  0.05981699     0.08200
N258        N  0.12295073  0.26894313  0.97636439    -0.35600
N259        N  0.12755759  0.25171402  0.96974745    -0.27800
C260        C  0.11116890  0.24268254  0.96606558    -0.03000
C261        C  0.09577258  0.25490887  0.97087360     0.05600
C262        C  0.10401422  0.27136102  0.97703158     0.03700
H263        H  0.11051180  0.22784648  0.96200919     0.08800
H264        H  0.09686432  0.28356288  0.98367359     0.07600
N265        N  0.94809162  0.60008167  0.28280202    -0.26800
N266        N  0.93264037  0.60640813  0.29189592    -0.34600
C267        C  0.93249989  0.62548266  0.29316772     0.01600
C268        C  0.94842576  0.63184983  0.28435372     0.07600
C269        C  0.95798951  0.61534259  0.27780352    -0.05500
H270        H  0.92148656  0.63412043  0.30009114     0.08300
H271        H  0.97143567  0.61449081  0.27047388     0.09500
Cu272      Cu  0.91163888  0.58988407  0.30284298     0.44200
Cu273      Cu  0.95542502  0.57060746  0.27897208     0.42000
Cu274      Cu  0.92035743  0.54054673  0.29981075     0.43900
N275        N  0.89260238  0.57094474  0.31333088    -0.34200
N276        N  0.89633520  0.55243433  0.31255095    -0.28400
C277        C  0.88240075  0.54347088  0.32118268    -0.04500
C278        C  0.86909528  0.55698919  0.32748499     0.07700
C279        C  0.87588969  0.57430143  0.32221175     0.01500
H280        H  0.88191191  0.52822233  0.32262269     0.09100
H281        H  0.86945818  0.58825084  0.32503746     0.08200
N282        N  0.94541829  0.53009839  0.28789833    -0.35600
N283        N  0.95837001  0.54039250  0.27984784    -0.27800
C284        C  0.97276125  0.52839725  0.27393485    -0.03000
C285        C  0.96861784  0.50989447  0.27884945     0.05600
C286        C  0.95119219  0.51170455  0.28761996     0.03700
H287        H  0.98551200  0.53282527  0.26709418     0.08800
H288        H  0.94317792  0.50039425  0.29344181     0.07600
N289        N  0.80635826  0.70836437  0.41067599    -0.26800
N290        N  0.79699568  0.71580152  0.39599818    -0.34600
C291        C  0.77829096  0.71671711  0.39951667     0.01600
C292        C  0.77533538  0.70954348  0.41727327     0.07600
C293        C  0.79347071  0.70440911  0.42406351    -0.05500
H294        H  0.76758386  0.72171403  0.38946344     0.08300
H295        H  0.79695107  0.69773885  0.43744706     0.09500
Cu296      Cu  0.80843609  0.72241425  0.37027673     0.44200
Cu297      Cu  0.83624241  0.70270083  0.41047819     0.42000
Cu298      Cu  0.85193139  0.69791796  0.36173360     0.43900
N299        N  0.82078383  0.72191771  0.34393766    -0.34200
N300        N  0.83642506  0.71154457  0.34050433    -0.28400
C301        C  0.84171740  0.71424232  0.32254160    -0.04500
C302        C  0.82884038  0.72707807  0.31432568     0.07700
C303        C  0.81574778  0.73172180  0.32831373     0.01500
H304        H  0.85487093  0.70860251  0.31648572     0.09100
H305        H  0.80398229  0.74205143  0.32749960     0.08200
N306        N  0.86980196  0.69343697  0.38485312    -0.35600
N307        N  0.86497541  0.69659780  0.40275536    -0.27800
C308        C  0.88109896  0.69594252  0.41347175    -0.03000
C309        C  0.89659455  0.69192659  0.40166319     0.05600
C310        C  0.88871713  0.69035340  0.38372632     0.03700
H311        H  0.88160069  0.69874851  0.42859457     0.08800
H312        H  0.89635237  0.68859515  0.37053047     0.07600
N313        N  0.99348170  0.04827018  0.29726170    -0.26800
N314        N  0.00572387  0.04131441  0.30997358    -0.34600
C315        C  0.00430058  0.02245874  0.31105623     0.01600
C316        C  0.99047504  0.01665168  0.29849065     0.07600
C317        C  0.98373196  0.03348721  0.28994825    -0.05500
H318        H  0.01328158  0.01352963  0.32005076     0.08300
H319        H  0.97298894  0.03476463  0.27890785     0.09500
Cu320      Cu  0.02645094  0.05609955  0.32384338     0.44200
Cu321      Cu  0.99277104  0.07796576  0.29106227     0.42000
Cu322      Cu  0.03429012  0.10262875  0.31354315     0.43900
N323        N  0.05194886  0.06801504  0.33035023    -0.34200
N324        N  0.05557521  0.08559892  0.32588541    -0.28400
C325        C  0.07445673  0.08797513  0.32767322    -0.04500
C326        C  0.08299334  0.07085410  0.33336330     0.07700
C327        C  0.06821572  0.05864021  0.33502203     0.01500
H328        H  0.08160267  0.10042129  0.32311966     0.09100
H329        H  0.06940780  0.04350066  0.33742219     0.08200
N330        N  0.01130037  0.11606999  0.29988694    -0.35600
N331        N  0.99705035  0.10792815  0.29082711    -0.27800
C332        C  0.98618808  0.12189174  0.28249954    -0.03000
C333        C  0.99378683  0.13940957  0.28701008     0.05600
C334        C  0.00956357  0.13501451  0.29803838     0.03700
H335        H  0.97361228  0.11952424  0.27397171     0.08800
H336        H  0.01957696  0.14491050  0.30378711     0.07600
N337        N  0.28398380  0.97272503  0.31284916    -0.26800
N338        N  0.28006412  0.98981493  0.32024304    -0.34600
C339        C  0.28333979  0.98952536  0.33904838     0.01600
C340        C  0.28911910  0.97133840  0.34406920     0.07600
C341        C  0.28935292  0.96098349  0.32710540    -0.05500
H342        H  0.27941760  0.00109381  0.34868567     0.08300
H343        H  0.29201369  0.94581655  0.32544774     0.09500
Cu344      Cu  0.26341733  0.01077304  0.30717012     0.44200
Cu345      Cu  0.27912567  0.96589763  0.28397324     0.42000
Cu346      Cu  0.23882290  0.99323268  0.26664444     0.43900
N347        N  0.23732825  0.02227115  0.29834333    -0.34200
N348        N  0.22793182  0.01490504  0.28387246    -0.28400
C349        C  0.20986488  0.02168839  0.28415500    -0.04500
C350        C  0.20771541  0.03396625  0.29950610     0.07700
C351        C  0.22542592  0.03408983  0.30820935     0.01500
H352        H  0.19870862  0.01673622  0.27486777     0.09100
H353        H  0.22874806  0.04032417  0.32190704     0.08200
N354        N  0.25380216  0.97365542  0.24995499    -0.35600
N355        N  0.26950828  0.96435151  0.25555480    -0.27800
C356        C  0.27747625  0.95556713  0.24021778    -0.03000
C357        C  0.26594394  0.95934255  0.22443926     0.05600
C358        C  0.25107315  0.97073214  0.23127663     0.03700
H359        H  0.29094986  0.94761919  0.24038552     0.08800
H360        H  0.23987747  0.97770015  0.22299905     0.07600
N361        N  0.25449637  0.94306851  0.50158171    -0.26800
N362        N  0.24101388  0.93427438  0.49217786    -0.34600
C363        C  0.24429107  0.93458077  0.47351590     0.01600
C364        C  0.26059667  0.94422836  0.47054610     0.07600
C365        C  0.26676761  0.94960137  0.48868494    -0.05500
H366        H  0.23532490  0.92815668  0.46285387     0.08300
H367        H  0.27942753  0.95719297  0.49220275     0.09500
Cu368      Cu  0.21888007  0.92119245  0.50431506     0.44200
Cu369      Cu  0.25426103  0.94379283  0.53173984     0.42000
Cu370      Cu  0.21774109  0.91144413  0.55226757     0.43900
N371        N  0.19901679  0.90417363  0.51526388    -0.34200
N372        N  0.19868661  0.89939397  0.53325480    -0.28400
C373        C  0.18483190  0.88690562  0.53553354    -0.04500
C374        C  0.17614702  0.88395278  0.51798095     0.07700
C375        C  0.18555450  0.89516672  0.50556731     0.01500
H376        H  0.18145722  0.88041295  0.54883329     0.09100
H377        H  0.18324793  0.89631452  0.49042947     0.08200
N378        N  0.23575265  0.92880135  0.56776335    -0.35600
N379        N  0.24834692  0.94048279  0.56104377    -0.27800
C380        C  0.25613006  0.94986336  0.57593929    -0.03000
C381        C  0.24806285  0.94378575  0.59264031     0.05600
C382        C  0.23529975  0.93046143  0.58677406     0.03700
H383        H  0.26677170  0.96043754  0.57470208     0.08800
H384        H  0.22598919  0.92266380  0.59565396     0.07600
N385        N  0.53662528  0.03152379  0.66584858    -0.26800
N386        N  0.53588857  0.02665254  0.68385449    -0.34600
C387        C  0.53617233  0.00767495  0.68517195     0.01600
C388        C  0.53688765  0.99980931  0.66716847     0.07600
C389        C  0.53714870  0.01536314  0.65512679    -0.05500
H390        H  0.53419712  0.00022764  0.69827515     0.08300
H391        H  0.53693138  0.01494983  0.63977980     0.09500
Cu392      Cu  0.52781020  0.04479224  0.70562374     0.44200
Cu393      Cu  0.53463165  0.06056837  0.65830260     0.42000
Cu394      Cu  0.50029100  0.08418663  0.69057174     0.43900
N395        N  0.50522762  0.05571716  0.72105337    -0.34200
N396        N  0.49380722  0.06961539  0.71483406    -0.28400
C397        C  0.47814541  0.07074078  0.72567850    -0.04500
C398        C  0.47985481  0.05664184  0.73922040     0.07700
C399        C  0.49722433  0.04748344  0.73585245     0.01500
H400        H  0.46592393  0.08017103  0.72304822     0.09100
H401        H  0.50293145  0.03473349  0.74253135     0.08200
N402        N  0.51530091  0.09808485  0.67018806    -0.35600
N403        N  0.52872211  0.09034182  0.65915918    -0.27800
C404        C  0.53687237  0.10450295  0.64969575    -0.03000
C405        C  0.52779121  0.12172853  0.65486955     0.05600
C406        C  0.51427754  0.11695244  0.66780040     0.03700
H407        H  0.54836817  0.10243060  0.63970914     0.08800
H408        H  0.50474129  0.12663025  0.67551423     0.07600
N409        N  0.28526569  0.95901993  0.00362645    -0.26800
N410        N  0.30251391  0.95705710  0.99641244    -0.34600
C411        C  0.30143607  0.95187735  0.97814144     0.01600
C412        C  0.28262460  0.95071195  0.97302200     0.07600
C413        C  0.27254414  0.95541965  0.98951806    -0.05500
H414        H  0.31358860  0.95021837  0.96889190     0.08300
H415        H  0.25725807  0.95612750  0.99110982     0.09500
Cu416      Cu  0.32710810  0.96564665  0.00898197     0.44200
Cu417      Cu  0.28199670  0.96624170  0.03278375     0.42000
Cu418      Cu  0.32610956  0.98759008  0.05269951     0.43900
N419        N  0.34770040  0.98397076  0.01697742    -0.34200
N420        N  0.34743827  0.99268963  0.03364272    -0.28400
C421        C  0.36082502  0.00582694  0.03398969    -0.04500
C422        C  0.36962412  0.00544829  0.01647353     0.07700
C423        C  0.36088045  0.99147450  0.00603099     0.01500
H424        H  0.36280880  0.01598782  0.04543235     0.09100
H425        H  0.36296103  0.98795981  0.99118271     0.08200
N426        N  0.30397232  0.97786150  0.06861434    -0.35600
N427        N  0.28800811  0.97063018  0.06209260    -0.27800
C428        C  0.27794461  0.96498260  0.07714318    -0.03000
C429        C  0.28827394  0.96856339  0.09366760     0.05600
C430        C  0.30457275  0.97674232  0.08760693     0.03700
H431        H  0.26460096  0.95790146  0.07609386     0.08800
H432        H  0.31635291  0.98120697  0.09635116     0.07600
N433        N  0.38077663  0.21515672  0.96049265    -0.26800
N434        N  0.37529280  0.19795414  0.95574117    -0.34600
C435        C  0.35652962  0.19852398  0.95192803     0.01600
C436        C  0.34941645  0.21688309  0.95467673     0.07600
C437        C  0.36520054  0.22712161  0.96017578    -0.05500
H438        H  0.34836244  0.18610882  0.94893943     0.08300
H439        H  0.36520147  0.24199021  0.96425660     0.09500
Cu440      Cu  0.39183539  0.17337952  0.95921544     0.44200
Cu441      Cu  0.40950010  0.22005470  0.96839588     0.42000
Cu442      Cu  0.43286931  0.17744247  0.98857161     0.43900
N443        N  0.40581002  0.15025817  0.97144485    -0.34200
N444        N  0.42013734  0.15181368  0.98354183    -0.28400
C445        C  0.42497308  0.13450717  0.99034835    -0.04500
C446        C  0.41320774  0.12149445  0.98187415     0.07700
C447        C  0.40123591  0.13196278  0.97001655     0.01500
H448        H  0.43627807  0.13161174  0.00053975     0.09100
H449        H  0.38958285  0.12680818  0.96151426     0.08200
N450        N  0.44656582  0.20253315  0.98439346    -0.35600
N451        N  0.43882378  0.21786147  0.97628399    -0.27800
C452        C  0.45284405  0.23009879  0.97327590    -0.03000
C453        C  0.47007291  0.22203121  0.97986007     0.05600
C454        C  0.46534909  0.20462953  0.98684852     0.03700
H455        H  0.45080459  0.24355116  0.96618167     0.08800
H456        H  0.47504450  0.19368578  0.99231163     0.07600
N457        N  0.62796441  0.25100114  0.94412753    -0.26800
N458        N  0.61932568  0.26346323  0.93271123    -0.34600
C459        C  0.60057043  0.26429034  0.93614497     0.01600
C460        C  0.59674296  0.25176453  0.95036842     0.07600
C461        C  0.61450110  0.24349746  0.95512279    -0.05500
H462        H  0.59036007  0.27305546  0.92830881     0.08300
H463        H  0.61736264  0.23273438  0.96567506     0.09500
Cu464      Cu  0.63181576  0.27770216  0.91084866     0.44200
Cu465      Cu  0.65796997  0.24506072  0.94341728     0.42000
Cu466      Cu  0.67886283  0.26329772  0.90075953     0.43900
N467        N  0.64455584  0.28405707  0.88550230    -0.34200
N468        N  0.66193642  0.27760808  0.88152845    -0.28400
C469        C  0.66537851  0.28018621  0.86309280    -0.04500
C470        C  0.64937359  0.28880724  0.85506993     0.07700
C471        C  0.63645680  0.29125576  0.86966212     0.01500
H472        H  0.67815592  0.27515793  0.85588525     0.09100
H473        H  0.62173481  0.29616258  0.86845197     0.08200
N474        N  0.69463400  0.25036042  0.92180642    -0.35600
N475        N  0.68773631  0.24359504  0.93762410    -0.27800
C476        C  0.70265067  0.23691964  0.94823572    -0.03000
C477        C  0.71948013  0.23976348  0.93850027     0.05600
C478        C  0.71366778  0.24828536  0.92185418     0.03700
H479        H  0.70139803  0.23078393  0.96212075     0.08800
H480        H  0.72262324  0.25300183  0.91060965     0.07600
N481        N  0.70073440  0.38500817  0.15889165    -0.26800
N482        N  0.71557102  0.37554650  0.16643138    -0.34600
C483        C  0.71351618  0.37464993  0.18531353     0.01600
C484        C  0.69686502  0.38430017  0.19021034     0.07600
C485        C  0.68913436  0.39083275  0.17318518    -0.05500
H486        H  0.72406842  0.36848033  0.19491247     0.08300
H487        H  0.67623680  0.39952208  0.17138976     0.09500
Cu488      Cu  0.73972946  0.36562551  0.15250668     0.44200
Cu489      Cu  0.69688194  0.38996813  0.12941242     0.42000
Cu490      Cu  0.73605371  0.36787993  0.10364578     0.43900
N491        N  0.76105465  0.35435579  0.13541256    -0.34200
N492        N  0.75901863  0.35444820  0.11680594    -0.28400
C493        C  0.77312709  0.34374637  0.10894862    -0.04500
C494        C  0.78485019  0.33691925  0.12334139     0.07700
C495        C  0.77677653  0.34382862  0.13999497     0.01500
H496        H  0.77420522  0.34036646  0.09396437     0.09100
H497        H  0.78104187  0.34015722  0.15430870     0.08200
N498        N  0.71385156  0.38282056  0.09078279    -0.35600
N499        N  0.69902291  0.39102765  0.09941877    -0.27800
C500        C  0.68767943  0.39940423  0.08597397    -0.03000
C501        C  0.69612478  0.39635619  0.06825749     0.05600
C502        C  0.71259058  0.38580655  0.07209922     0.03700
H503        H  0.67453681  0.40736298  0.08886010     0.08800
H504        H  0.72305838  0.38050400  0.06200424     0.07600
N505        N  0.51959128  0.58813011  0.68641916    -0.26800
N506        N  0.51939046  0.59229974  0.70480198    -0.34600
C507        C  0.51887250  0.61126590  0.70723504     0.01600
C508        C  0.51877788  0.61974722  0.68965996     0.07600
C509        C  0.51936071  0.60460951  0.67671078    -0.05500
H510        H  0.51809356  0.61837950  0.72092607     0.08300
H511        H  0.51878369  0.60552512  0.66140873     0.09500
Cu512      Cu  0.51807271  0.57266023  0.72650826     0.44200
Cu513      Cu  0.51783994  0.55992921  0.67602531     0.42000
Cu514      Cu  0.49564435  0.53125124  0.71126604     0.43900
N515        N  0.51385779  0.55024726  0.74471241    -0.34200
N516        N  0.50473491  0.53517082  0.73891033    -0.28400
C517        C  0.50597702  0.52188011  0.75236131    -0.04500
C518        C  0.51634625  0.52887317  0.76750098     0.07700
C519        C  0.52103357  0.54700832  0.76224258     0.01500
H520        H  0.50083787  0.50768067  0.75062282     0.09100
H521        H  0.53010283  0.55654710  0.76995837     0.08200
N522        N  0.50071981  0.52206037  0.68383550    -0.35600
N523        N  0.51114162  0.53118607  0.67168263    -0.27800
C524        C  0.51709188  0.51866157  0.65805479    -0.03000
C525        C  0.50956492  0.50111334  0.66166418     0.05600
C526        C  0.49925551  0.50392801  0.67804794     0.03700
H527        H  0.52702877  0.52177012  0.64701728     0.08800
H528        H  0.49325032  0.49298552  0.68649338     0.07600
N529        N  0.37072350  0.71104015  0.43206206    -0.26800
N530        N  0.37604183  0.72870307  0.43478182    -0.34600
C531        C  0.39510749  0.72898079  0.43542346     0.01600
C532        C  0.40246854  0.71062338  0.43350618     0.07600
C533        C  0.38660229  0.69951414  0.43142580    -0.05500
H534        H  0.40299726  0.74143935  0.43901366     0.08300
H535        H  0.38660641  0.68417888  0.43028539     0.09500
Cu536      Cu  0.35848816  0.75067899  0.44487866     0.44200
Cu537      Cu  0.34162171  0.70419185  0.43166014     0.42000
Cu538      Cu  0.31854078  0.73260425  0.46792707     0.43900
N539        N  0.34638842  0.76366535  0.46854819    -0.34200
N540        N  0.33262944  0.75595388  0.47802387    -0.28400
C541        C  0.33102261  0.76454769  0.49511444    -0.04500
C542        C  0.34442869  0.77836184  0.49643716     0.07700
C543        C  0.35385293  0.77748040  0.47929360     0.01500
H544        H  0.32171316  0.76014497  0.50620733     0.09100
H545        H  0.36658790  0.78474580  0.47577855     0.08200
N546        N  0.30434922  0.71325052  0.45125584    -0.35600
N547        N  0.31198740  0.70367519  0.43675462    -0.27800
C548        C  0.29793779  0.69454267  0.42750701    -0.03000
C549        C  0.28090458  0.69839732  0.43700223     0.05600
C550        C  0.28567020  0.71015253  0.45198606     0.03700
H551        H  0.29998262  0.68556204  0.41505394     0.08800
H552        H  0.27607062  0.71655765  0.46236344     0.07600
N553        N  0.66683728  0.44530569  0.65684113    -0.26800
N554        N  0.65688315  0.45936939  0.66519409    -0.34600
C555        C  0.65809758  0.45749971  0.68413331     0.01600
C556        C  0.66933124  0.44152866  0.68807280     0.07600
C557        C  0.67451969  0.43398902  0.67046975    -0.05500
H558        H  0.65073786  0.46673078  0.69429353     0.08300
H559        H  0.68290929  0.42104405  0.66777875     0.09500
Cu560      Cu  0.64052115  0.47978781  0.65095554     0.44200
Cu561      Cu  0.66836683  0.44194772  0.62706214     0.42000
Cu562      Cu  0.62752726  0.46533055  0.60444503     0.43900
N563        N  0.62346014  0.49657054  0.63335428    -0.34200
N564        N  0.61729627  0.49037981  0.61671377    -0.28400
C565        C  0.60840625  0.50481200  0.60755538    -0.04500
C566        C  0.60933599  0.52094124  0.61884112     0.07700
C567        C  0.61897255  0.51525404  0.63510710     0.01500
H568        H  0.60386710  0.50418127  0.59285270     0.09100
H569        H  0.62366213  0.52427620  0.64665066     0.08200
N570        N  0.64773139  0.44907477  0.58988601    -0.35600
N571        N  0.66362274  0.44175724  0.59744439    -0.27800
C572        C  0.67493954  0.43516892  0.58318332    -0.03000
C573        C  0.66546294  0.43836793  0.56602704     0.05600
C574        C  0.64831933  0.44713629  0.57093928     0.03700
H575        H  0.68900603  0.42868595  0.58512116     0.08800
H576        H  0.63743363  0.45272224  0.56136561     0.07600
C577        C  0.54678697  0.25052813  0.96087908     0.20800
C578        C  0.52737286  0.25579045  0.95876288    -0.39000
C579        C  0.51451419  0.24435949  0.96800164     0.19800
C580        C  0.52057814  0.22888253  0.97861877     0.22500
C581        C  0.54005147  0.22370293  0.98088209    -0.39500
C582        C  0.55294273  0.23512062  0.97155051     0.21300
N583        N  0.56157539  0.25843696  0.95251860    -0.32800
C584        C  0.57744005  0.24809601  0.95774205    -0.10400
C585        C  0.57260689  0.23343471  0.96978635    -0.29200
N586        N  0.50554065  0.21951145  0.98477583    -0.45800
C587        C  0.48971609  0.22894742  0.97795732    -0.05100
C588        C  0.49480415  0.24469400  0.96757871    -0.22400
H589        H  0.52259657  0.26758575  0.95002415     0.19400
H590        H  0.54477710  0.21132837  0.98882423     0.18200
H591        H  0.58207201  0.22262086  0.97586326     0.14500
H592        H  0.48541565  0.25448970  0.95992987     0.14300
H593        H  0.56077896  0.27002117  0.94340844     0.32500
H594        H  0.50609413  0.20700631  0.99257299     0.35200
C595        C  0.39950290  0.04419342  0.00896054     0.20800
C596        C  0.40946586  0.06021909  0.01461797    -0.39000
C597        C  0.41109882  0.07419763  0.00084126     0.19800
C598        C  0.40331088  0.07233780  0.98281482     0.22500
C599        C  0.39382754  0.05608771  0.97698563    -0.39500
C600        C  0.39226205  0.04209369  0.99073368     0.21300
N601        N  0.39334147  0.03056158  0.02023587    -0.32800
C602        C  0.38215870  0.01973549  0.00910321    -0.10400
C603        C  0.38145689  0.02623233  0.99051674    -0.29200
N604        N  0.40407248  0.08870624  0.97342150    -0.45800
C605        C  0.41240628  0.10106145  0.98549809    -0.05100
C606        C  0.41734539  0.09244984  0.00262395    -0.22400
H607        H  0.41437528  0.06226875  0.02907831     0.19400
H608        H  0.38698040  0.05502532  0.96321020     0.18200
H609        H  0.37259197  0.02127548  0.97897126     0.14500
H610        H  0.42302363  0.09915292  0.01526401     0.14300
H611        H  0.39552174  0.02947181  0.03486323     0.32500
H612        H  0.39823590  0.09162224  0.96001242     0.35200
C613        C  0.28890545  0.95827232  0.14336860     0.20800
C614        C  0.29717796  0.95603093  0.16148453    -0.39000
C615        C  0.28445173  0.95451437  0.17655446     0.19800
C616        C  0.26494900  0.95538502  0.17375381     0.22500
C617        C  0.25667260  0.95731401  0.15557527    -0.39500
C618        C  0.26942151  0.95863916  0.14046466     0.21300
N619        N  0.29790471  0.96139767  0.12705671    -0.32800
C620        C  0.28416024  0.96361595  0.11353107    -0.10400
C621        C  0.26615373  0.96180979  0.12132515    -0.29200
N622        N  0.25594189  0.95593160  0.19050783    -0.45800
C623        C  0.26975533  0.95537804  0.20411611    -0.05100
C624        C  0.28775300  0.95416082  0.19593501    -0.22400
H625        H  0.31240426  0.95620872  0.16376654     0.19400
H626        H  0.24141735  0.95844127  0.15344816     0.18200
H627        H  0.25252974  0.96349662  0.11416207     0.14500
H628        H  0.30136634  0.95469705  0.20316510     0.14300
H629        H  0.31257760  0.96229887  0.12531361     0.32500
H630        H  0.24132531  0.95764149  0.19256109     0.35200
C631        C  0.27331009  0.94363942  0.42141415     0.20800
C632        C  0.27240330  0.93740371  0.40239871    -0.39000
C633        C  0.28103525  0.94888550  0.38913899     0.19800
C634        C  0.28958376  0.96553902  0.39441701     0.22500
C635        C  0.29068234  0.97167272  0.41351011    -0.39500
C636        C  0.28232166  0.95998279  0.42685092     0.21300
N637        N  0.26510781  0.93585738  0.43638660    -0.32800
C638        C  0.26896892  0.94712272  0.45163245    -0.10400
C639        C  0.27986799  0.96229109  0.44628126    -0.29200
N640        N  0.29473490  0.97501639  0.37895734    -0.45800
C641        C  0.28959745  0.96426088  0.36372777    -0.05100
C642        C  0.28121869  0.94771399  0.36954142    -0.22400
H643        H  0.26495339  0.92484525  0.39816538     0.19400
H644        H  0.29701988  0.98489680  0.41759655     0.18200
H645        H  0.28444038  0.97395203  0.45515825     0.14500
H646        H  0.27459024  0.93716518  0.36063250     0.14300
H647        H  0.25694786  0.92378320  0.43612685     0.32500
H648        H  0.30042329  0.98843245  0.37873516     0.35200
C649        C  0.16004794  0.03892300  0.31558002     0.20800
C650        C  0.14143964  0.03321219  0.31784711    -0.39000
C651        C  0.12856049  0.04713028  0.32481236     0.19800
C652        C  0.13363176  0.06553346  0.32897403     0.22500
C653        C  0.15251577  0.07116298  0.32714815    -0.39500
C654        C  0.16558214  0.05705016  0.32036169     0.21300
N655        N  0.17442026  0.02861318  0.30783310    -0.32800
C656        C  0.18940498  0.04004237  0.30783488    -0.10400
C657        C  0.18462136  0.05787254  0.31576314    -0.29200
N658        N  0.11809433  0.07649624  0.33331959    -0.45800
C659        C  0.10322946  0.06480249  0.33206817    -0.05100
C660        C  0.10930416  0.04638041  0.32703285    -0.22400
H661        H  0.13713461  0.01911790  0.31379485     0.19400
H662        H  0.15657744  0.08557637  0.33011927     0.18200
H663        H  0.19355675  0.06998846  0.31710468     0.14500
H664        H  0.10062434  0.03432636  0.32402776     0.14300
H665        H  0.17399385  0.01469158  0.30259935     0.32500
H666        H  0.11753418  0.09112290  0.33627349     0.35200
C667        C  0.26443965  0.22667918  0.95796914     0.20800
C668        C  0.27856502  0.21686066  0.94716909    -0.39000
C669        C  0.29754919  0.22147094  0.95121726     0.19800
C670        C  0.30209552  0.23502164  0.96476157     0.22500
C671        C  0.28803408  0.24462222  0.97566225    -0.39500
C672        C  0.26915766  0.23984373  0.97181334     0.21300
N673        N  0.24542341  0.22437994  0.95754557    -0.32800
C674        C  0.23807438  0.23598271  0.97146535    -0.10400
C675        C  0.25251787  0.24580064  0.98058919    -0.29200
N676        N  0.32111926  0.23608299  0.96674942    -0.45800
C677        C  0.32889022  0.22281025  0.95469743    -0.05100
C678        C  0.31459464  0.21349419  0.94468526    -0.22400
H679        H  0.27509020  0.20603562  0.93678376     0.19400
H680        H  0.29157519  0.25470959  0.98675341     0.18200
H681        H  0.25108990  0.25581299  0.99232938     0.14500
H682        H  0.31642383  0.20176863  0.93468712     0.14300
H683        H  0.23802582  0.21509051  0.94881977     0.32500
H684        H  0.32832642  0.24439247  0.97659555     0.35200
C685        C  0.98595247  0.18324210  0.26245838     0.20800
C686        C  0.98699024  0.19511702  0.24663871    -0.39000
C687        C  0.98909633  0.21459265  0.25060805     0.19800
C688        C  0.98989503  0.22183319  0.26893637     0.22500
C689        C  0.98904738  0.20993475  0.28476491    -0.39500
C690        C  0.98717389  0.19041307  0.28079702     0.21300
N691        N  0.98613316  0.16405026  0.26243824    -0.32800
C692        C  0.98792929  0.15887714  0.28086370    -0.10400
C693        C  0.98849082  0.17498241  0.29269030    -0.29200
N694        N  0.99307812  0.24064190  0.26888498    -0.45800
C695        C  0.99461194  0.24540060  0.25037380    -0.05100
C696        C  0.99213927  0.22947428  0.23860989    -0.22400
H697        H  0.98700195  0.18948813  0.23226712     0.19400
H698        H  0.99060281  0.21535468  0.29912144     0.18200
H699        H  0.99113247  0.17530396  0.30784286     0.14500
H700        H  0.99311720  0.22871550  0.22330471     0.14300
H701        H  0.98682843  0.15502233  0.25055262     0.32500
H702        H  0.99500824  0.24947432  0.28071611     0.35200
C703        C  0.99619201  0.46875821  0.26254549     0.20800
C704        C  0.00626000  0.45715768  0.24929227    -0.39000
C705        C  0.00763736  0.43757224  0.25326521     0.19800
C706        C  0.99969385  0.43010315  0.26926233     0.22500
C707        C  0.98976746  0.44169160  0.28254684    -0.39500
C708        C  0.98822791  0.46119318  0.27848649     0.21300
N709        N  0.99128993  0.48745545  0.26115101    -0.32800
C710        C  0.97982045  0.49171428  0.27614059    -0.10400
C711        C  0.97778539  0.47569478  0.28731055    -0.29200
N712        N  0.00170240  0.41096330  0.26910027    -0.45800
C713        C  0.01094953  0.40607255  0.25283496    -0.05100
C714        C  0.01502740  0.42236206  0.24268871    -0.22400
H715        H  0.01193409  0.46283758  0.23643609     0.19400
H716        H  0.98298639  0.43583019  0.29474215     0.18200
H717        H  0.96895932  0.47454970  0.29969485     0.14500
H718        H  0.02176607  0.42297882  0.22899375     0.14300
H719        H  0.99448356  0.49640484  0.25006860     0.32500
H720        H  0.99659437  0.40177341  0.27917747     0.35200
C721        C  0.09372859  0.31515507  0.12009508     0.20800
C722        C  0.10016319  0.32251642  0.10301646    -0.39000
C723        C  0.11132569  0.30992008  0.09175720     0.19800
C724        C  0.11597383  0.29150009  0.09723409     0.22500
C725        C  0.10921417  0.28402019  0.11411269    -0.39500
C726        C  0.09782975  0.29652617  0.12523053     0.21300
N727        N  0.08257668  0.32409341  0.13308284    -0.32800
C728        C  0.07923573  0.31092863  0.14634529    -0.10400
C729        C  0.08849710  0.29356943  0.14194412    -0.29200
N730        N  0.12687893  0.28245789  0.08412599    -0.45800
C731        C  0.12892373  0.29510128  0.07006071    -0.05100
C732        C  0.11934221  0.31235283  0.07424321    -0.22400
H733        H  0.09658675  0.33692188  0.09872316     0.19400
H734        H  0.11242193  0.26947865  0.11819312     0.18200
H735        H  0.08824725  0.28050126  0.14981183     0.14500
H736        H  0.11834233  0.32493256  0.06559741     0.14300
H737        H  0.07702085  0.33806414  0.13261477     0.32500
H738        H  0.13215282  0.26836896  0.08446632     0.35200
C739        C  0.83612112  0.76021661  0.27798949     0.20800
C740        C  0.83906434  0.77875910  0.27195611    -0.39000
C741        C  0.85295442  0.78048767  0.25802121     0.19800
C742        C  0.86301497  0.76489910  0.25048571     0.22500
C743        C  0.85991628  0.74636631  0.25633945    -0.39500
C744        C  0.84624420  0.74465708  0.27044059     0.21300
N745        N  0.82670624  0.75529611  0.29355458    -0.32800
C746        C  0.83136993  0.73666373  0.29621723    -0.10400
C747        C  0.84312132  0.72945320  0.28182841    -0.29200
N748        N  0.87763878  0.77044052  0.24011040    -0.45800
C749        C  0.87717551  0.78967300  0.24133330    -0.05100
C750        C  0.86168747  0.79645158  0.25203683    -0.22400
H751        H  0.83231068  0.79106336  0.27884302     0.19400
H752        H  0.86877656  0.73435064  0.25156702     0.18200
H753        H  0.85030991  0.71558831  0.28113154     0.14500
H754        H  0.85852432  0.81093361  0.25668899     0.14300
H755        H  0.81954504  0.76453940  0.30303114     0.32500
H756        H  0.88835821  0.76155693  0.23420870     0.35200
C757        C  0.97273558  0.71192857  0.27361567     0.20800
C758        C  0.97558061  0.69364795  0.26546126    -0.39000
C759        C  0.96635978  0.67885118  0.27434184     0.19800
C760        C  0.95486181  0.68215342  0.28993174     0.22500
C761        C  0.95211752  0.70042841  0.29817151    -0.39500
C762        C  0.96165330  0.71518640  0.28951052     0.21300
N763        N  0.97897703  0.72840359  0.26709235    -0.32800
C764        C  0.97208597  0.74239414  0.27892063    -0.10400
C765        C  0.96127447  0.73464679  0.29323730    -0.29200
N766        N  0.94712262  0.66591975  0.29530726    -0.45800
C767        C  0.95389044  0.65202127  0.28329699    -0.05100
C768        C  0.96601758  0.65957350  0.27000305    -0.22400
H769        H  0.98415617  0.69117856  0.25293920     0.19400
H770        H  0.94299924  0.70300359  0.31028812     0.18200
H771        H  0.95305347  0.74231379  0.30397504     0.14500
H772        H  0.97328175  0.65206877  0.25851033     0.14300
H773        H  0.98679001  0.73014867  0.25476267     0.32500
H774        H  0.93781375  0.66438152  0.30660997     0.35200
C775        C  0.97888908  0.93257073  0.29264901     0.20800
C776        C  0.99116038  0.94567997  0.30091771    -0.39000
C777        C  0.98701244  0.96494821  0.29699571     0.19800
C778        C  0.97186155  0.97091447  0.28562963     0.22500
C779        C  0.95952272  0.95776790  0.27734301    -0.39500
C780        C  0.96364170  0.93842859  0.28134208     0.21300
N781        N  0.97982761  0.91345410  0.29420325    -0.32800
C782        C  0.96504279  0.90694779  0.28381264    -0.10400
C783        C  0.95463206  0.92219262  0.27562953    -0.29200
N784        N  0.97103514  0.99010514  0.28431536    -0.45800
C785        C  0.98573894  0.99637969  0.29505648    -0.05100
C786        C  0.99595697  0.98099162  0.30308658    -0.22400
H787        H  0.00307059  0.94121665  0.30984256     0.19400
H788        H  0.94756723  0.96224119  0.26848370     0.18200
H789        H  0.94217281  0.92153192  0.26656162     0.14500
H790        H  0.00832043  0.98139918  0.31230604     0.14300
H791        H  0.98996947  0.90532990  0.30182242     0.32500
H792        H  0.96095798  0.99841781  0.27678766     0.35200
C793        C  0.19841195  0.68294540  0.43602755     0.20800
C794        C  0.21469981  0.68000782  0.44741125    -0.39000
C795        C  0.23207249  0.68398243  0.43908835     0.19800
C796        C  0.23330766  0.69032579  0.42068190     0.22500
C797        C  0.21687638  0.69335618  0.40922416    -0.39500
C798        C  0.19933092  0.68937245  0.41762022     0.21300
N799        N  0.18027992  0.68248417  0.44171196    -0.32800
C800        C  0.16926562  0.68870502  0.42700208    -0.10400
C801        C  0.18064810  0.69293353  0.41152868    -0.29200
N802        N  0.25137937  0.69485035  0.41689316    -0.45800
C803        C  0.26155251  0.69157520  0.43311212    -0.05100
C804        C  0.24992657  0.68478682  0.44718526    -0.22400
H805        H  0.21380123  0.67590249  0.46210350     0.19400
H806        H  0.21760983  0.69926157  0.39517671     0.18200
H807        H  0.17604643  0.69959592  0.39844144     0.14500
H808        H  0.25376682  0.68208992  0.46183610     0.14300
H809        H  0.17572197  0.67950217  0.45531951     0.32500
H810        H  0.25616510  0.70117191  0.40460953     0.35200
C811        C  0.98130773  0.69776404  0.40458075     0.20800
C812        C  0.96724053  0.68792756  0.39454142    -0.39000
C813        C  0.94853192  0.69033803  0.40141236     0.19800
C814        C  0.94415253  0.70148431  0.41722081     0.22500
C815        C  0.95816366  0.71150404  0.42708512    -0.39500
C816        C  0.97680045  0.70930904  0.42006900     0.21300
N817        N  0.00007339  0.69820880  0.40071900    -0.32800
C818        C  0.00752504  0.71036801  0.41369457    -0.10400
C819        C  0.99336737  0.71760495  0.42590000    -0.29200
N820        N  0.92520420  0.70236140  0.42022131    -0.45800
C821        C  0.91733989  0.69205252  0.40595410    -0.05100
C822        C  0.93151215  0.68421043  0.39406837    -0.22400
H823        H  0.97052909  0.67939538  0.38201649     0.19400
H824        H  0.95472966  0.72072975  0.43908530     0.18200
H825        H  0.99499445  0.72760608  0.43755291     0.14500
H826        H  0.92954143  0.67598951  0.38115400     0.14300
H827        H  0.00726616  0.69105152  0.38971765     0.32500
H828        H  0.91800541  0.71049981  0.43052565     0.35200
C829        C  0.12144825  0.82981410  0.48522781     0.20800
C830        C  0.13070873  0.84628931  0.48038754    -0.39000
C831        C  0.14116460  0.85477571  0.49502250     0.19800
C832        C  0.14226469  0.84756233  0.51318186     0.22500
C833        C  0.13308773  0.83099097  0.51800325    -0.39500
C834        C  0.12278978  0.82234943  0.50328781     0.21300
N835        N  0.11210413  0.81818591  0.47343750    -0.32800
C836        C  0.10784460  0.80302126  0.48394409    -0.10400
C837        C  0.11418720  0.80512054  0.50263425    -0.29200
N838        N  0.15425952  0.85751764  0.52408719    -0.45800
C839        C  0.16099091  0.87097683  0.51266301    -0.05100
C840        C  0.15300723  0.86977476  0.49450366    -0.22400
H841        H  0.13045276  0.85165828  0.46607357     0.19400
H842        H  0.13455354  0.82481274  0.53193467     0.18200
H843        H  0.11356432  0.79489714  0.51390384     0.14500
H844        H  0.15609384  0.87817186  0.48226081     0.14300
H845        H  0.11002885  0.81977058  0.45879905     0.32500
H846        H  0.15830652  0.85473850  0.53813009     0.35200
C847        C  0.41059105  0.02949267  0.77516284     0.20800
C848        C  0.41728494  0.04618099  0.76753561    -0.39000
C849        C  0.43676388  0.04603764  0.76384076     0.19800
C850        C  0.44875422  0.03048097  0.76766608     0.22500
C851        C  0.44208412  0.01378366  0.77552026    -0.39500
C852        C  0.42248648  0.01386967  0.77910166     0.21300
N853        N  0.39236862  0.02522460  0.77708628    -0.32800
C854        C  0.39248205  0.00681950  0.78223764    -0.10400
C855        C  0.41102460  0.99920612  0.78393639    -0.29200
N856        N  0.46606642  0.03297219  0.76051721    -0.45800
C857        C  0.46497566  0.05003349  0.75179218    -0.05100
C858        C  0.44698374  0.05874621  0.75384221    -0.22400
H859        H  0.40776787  0.05792173  0.76351684     0.19400
H860        H  0.45123963  0.00123932  0.77749440     0.18200
H861        H  0.41539784  0.98453398  0.78640521     0.14500
H862        H  0.44162375  0.07182942  0.74751684     0.14300
H863        H  0.38040008  0.03395597  0.77371750     0.32500
H864        H  0.47746475  0.02294744  0.76032926     0.35200
C865        C  0.26863454  0.97140181  0.67096580     0.12400
C866        C  0.27251857  0.97529268  0.65187544    -0.39000
C867        C  0.26286303  0.96445589  0.63820630     0.19800
C868        C  0.25026955  0.95085871  0.64325562     0.22500
C869        C  0.24632591  0.94703524  0.66232986    -0.39500
C870        C  0.25598992  0.95783980  0.67599022     0.21300
N871        N  0.27684773  0.97888645  0.68652105    -0.32800
C872        C  0.26949852  0.97003777  0.70163684    -0.10400
C873        C  0.25625456  0.95691372  0.69560974    -0.29200
N874        N  0.24340790  0.94204227  0.62774018    -0.45800
C875        C  0.25166802  0.94995066  0.61257771    -0.05100
C876        C  0.26389457  0.96408020  0.61857047    -0.22400
H877        H  0.28264996  0.98569004  0.64796814     0.19400
H878        H  0.23673324  0.93614079  0.66624575     0.18200
H879        H  0.24860080  0.94731589  0.70431318     0.14500
H880        H  0.27255350  0.97271033  0.60979897     0.14300
H881        H  0.28730459  0.98903645  0.68675488     0.32500
H882        H  0.23386033  0.93106010  0.62756953     0.35200
C883        C  0.26699217  0.95149716  0.89000377     0.20800
C884        C  0.25811889  0.95823114  0.90685205    -0.39000
C885        C  0.26573364  0.95089476  0.92399553     0.19800
C886        C  0.28100164  0.93789483  0.92412338     0.22500
C887        C  0.28985008  0.93129940  0.90745388    -0.39500
C888        C  0.28230553  0.93856976  0.89050854     0.21300
N889        N  0.26418668  0.95791473  0.87216072    -0.32800
C890        C  0.27802121  0.94916656  0.86145796    -0.10400
C891        C  0.28943634  0.93695652  0.87246691    -0.29200
N892        N  0.28734679  0.93495192  0.94185266    -0.45800
C893        C  0.27636945  0.94622147  0.95340684    -0.05100
C894        C  0.26242049  0.95622769  0.94281533    -0.22400
H895        H  0.24686067  0.96915138  0.90668798     0.19400
H896        H  0.30249172  0.92202818  0.90773932     0.18200
H897        H  0.30233758  0.92924940  0.86816920     0.14500
H898        H  0.25269786  0.96741749  0.94789050     0.14300
H899        H  0.25465908  0.96883080  0.86791556     0.32500
H900        H  0.29954366  0.92691370  0.94571461     0.35200
C901        C  0.82673233  0.30712164  0.11878981     0.20800
C902        C  0.84637308  0.30283897  0.11725452    -0.39000
C903        C  0.85138771  0.28514000  0.10880780     0.19800
C904        C  0.83780503  0.27265631  0.10275032     0.22500
C905        C  0.81828698  0.27698975  0.10410945    -0.39500
C906        C  0.81331484  0.29469504  0.11218822     0.21300
N907        N  0.81820976  0.32359504  0.12466283    -0.32800
C908        C  0.79937452  0.32158067  0.12138856    -0.10400
C909        C  0.79577369  0.30380639  0.11365180    -0.29200
N910        N  0.84590428  0.25762538  0.09373044    -0.45800
C911        C  0.86481125  0.26057958  0.09346771    -0.05100
C912        C  0.86885885  0.27753712  0.10299001    -0.22400
H913        H  0.85691717  0.31289547  0.12147521     0.19400
H914        H  0.80773808  0.26762252  0.09841571     0.18200
H915        H  0.78221558  0.29861477  0.10893484     0.14500
H916        H  0.88248110  0.28407910  0.10426149     0.14300
H917        H  0.82481206  0.33579586  0.12953251     0.32500
H918        H  0.83866277  0.24673990  0.08691300     0.35200
C919        C  0.80274823  0.22975116  0.95731835     0.20800
C920        C  0.79077645  0.23662162  0.94258182    -0.39000
C921        C  0.77108437  0.23474032  0.94524815     0.19800
C922        C  0.76390956  0.22664172  0.96131100     0.22500
C923        C  0.77583366  0.21973055  0.97590165    -0.39500
C924        C  0.79539681  0.22163006  0.97326928     0.21300
N925        N  0.82189339  0.23046308  0.95876862    -0.32800
C926        C  0.82663228  0.22278023  0.97584116    -0.10400
C927        C  0.81042717  0.21707762  0.98513844    -0.29200
N928        N  0.74475310  0.22712564  0.96088931    -0.45800
C929        C  0.73952065  0.23563068  0.94442938    -0.05100
C930        C  0.75559908  0.24049470  0.93424165    -0.22400
H931        H  0.79632708  0.24323826  0.93014733     0.19400
H932        H  0.77025706  0.21362682  0.98859775     0.18200
H933        H  0.80961651  0.21077565  0.99899431     0.14500
H934        H  0.75594280  0.24766811  0.92078927     0.14300
H935        H  0.83106205  0.23619500  0.94900726     0.32500
H936        H  0.73580779  0.22224161  0.97131309     0.35200
C937        C  0.01352322  0.23614722  0.98055248     0.20800
C938        C  0.02934661  0.22983450  0.96956029    -0.39000
C939        C  0.04639234  0.23943213  0.97286387     0.19800
C940        C  0.04724858  0.25425571  0.98589471     0.22500
C941        C  0.03166852  0.26034071  0.99692254    -0.39500
C942        C  0.01492544  0.25066643  0.99385500     0.21300
N943        N  0.99574619  0.22945732  0.98045787    -0.32800
C944        C  0.98606104  0.23968108  0.99405614    -0.10400
C945        C  0.99763591  0.25295996  0.00265910    -0.29200
N946        N  0.06464244  0.26129328  0.98649802    -0.45800
C947        C  0.07541032  0.25094411  0.97394735    -0.05100
C948        C  0.06452058  0.23699229  0.96513485    -0.22400
H949        H  0.02848912  0.21828100  0.95933197     0.19400
H950        H  0.03257549  0.27176416  0.00729971     0.18200
H951        H  0.99387520  0.26302805  0.01388366     0.14500
H952        H  0.06914935  0.22665308  0.95447595     0.14300
H953        H  0.99066986  0.21844645  0.97205255     0.32500
H954        H  0.06894220  0.27239885  0.99532855     0.35200
C955        C  0.53325253  0.45667606  0.65126052     0.20800
C956        C  0.54856866  0.44339789  0.65293961    -0.39000
C957        C  0.54389998  0.42419260  0.65238139     0.19800
C958        C  0.52540698  0.41850213  0.65007181     0.22500
C959        C  0.51002537  0.43180685  0.64866162    -0.39500
C960        C  0.51467096  0.45107170  0.64948250     0.21300
N961        N  0.53378862  0.47565203  0.65366357    -0.32800
C962        C  0.51542577  0.48221522  0.65391493    -0.10400
C963        C  0.50310460  0.46729556  0.65123547    -0.29200
N964        N  0.52468432  0.39942692  0.65119684    -0.45800
C965        C  0.54281155  0.39300119  0.65460147    -0.05100
C966        C  0.55515052  0.40806402  0.65536974    -0.22400
H967        H  0.56298933  0.44771871  0.65540683     0.19400
H968        H  0.49544123  0.42749208  0.64790422     0.18200
H969        H  0.48775093  0.46802227  0.65220609     0.14500
H970        H  0.57026305  0.40738394  0.65843392     0.14300
H971        H  0.54578729  0.48340126  0.65690913     0.32500
H972        H  0.51249974  0.39138675  0.65071645     0.35200
C973        C  0.53297323  0.20500758  0.64184798     0.20800
C974        C  0.51935940  0.19132594  0.64481547    -0.39000
C975        C  0.52619341  0.17228834  0.64483293     0.19800
C976        C  0.54512939  0.16709042  0.64194453     0.22500
C977        C  0.55879089  0.18078319  0.63908309    -0.39500
C978        C  0.55196489  0.19985370  0.63920583     0.21300
N979        N  0.53049145  0.22407105  0.64354467    -0.32800
C980        C  0.54811284  0.23108145  0.64238690    -0.10400
C981        C  0.56176074  0.21639117  0.63940744    -0.29200
N982        N  0.54815506  0.14816737  0.64408113    -0.45800
C983        C  0.53102524  0.14136224  0.64864955    -0.05100
C984        C  0.51705787  0.15600734  0.64916145    -0.22400
H985        H  0.50466212  0.19525923  0.64783012     0.19400
H986        H  0.57377562  0.17695388  0.63778756     0.18200
H987        H  0.57704882  0.21753817  0.63911967     0.14500
H988        H  0.50229881  0.15500118  0.65305972     0.14300
H989        H  0.51794720  0.23162479  0.64706763     0.32500
H990        H  0.56119343  0.14058209  0.64359574     0.35200
C991        C  0.63773935  0.29141619  0.77140964     0.20800
C992        C  0.64826314  0.28094215  0.78495821    -0.39000
C993        C  0.64567726  0.28692055  0.80386925     0.19800
C994        C  0.63318355  0.30180647  0.80890727     0.22500
C995        C  0.62282114  0.31233358  0.79538508    -0.39500
C996        C  0.62579530  0.30671098  0.77650907     0.21300
N997        N  0.63762655  0.28877644  0.75247953    -0.32800
C998        C  0.62585216  0.30279306  0.74562592    -0.10400
C999        C  0.61823787  0.31422150  0.76015050    -0.29200
N1000       N  0.63293382  0.30442035  0.82778186    -0.45800
C1001       C  0.64561448  0.29135238  0.83478690    -0.05100
C1002       C  0.65391452  0.28019659  0.82035073    -0.22400
H1003       H  0.65784228  0.26915059  0.78107393     0.19400
H1004       H  0.61326324  0.32414508  0.79926318     0.18200
H1005       H  0.60813220  0.32614163  0.75892210     0.14500
H1006       H  0.66425762  0.26850302  0.82177521     0.14300
H1007       H  0.64511814  0.27820798  0.74470602     0.32500
H1008       H  0.62473279  0.31458196  0.83544958     0.35200
C1009       C  0.66687060  0.41343294  0.76717509     0.20800
C1010       C  0.65908152  0.40961491  0.74915150    -0.39000
C1011       C  0.66683818  0.41928105  0.73398934     0.19800
C1012       C  0.68121369  0.43194416  0.73659044     0.22500
C1013       C  0.68909402  0.43570495  0.75469224    -0.39500
C1014       C  0.68136801  0.42591158  0.76992921     0.21300
N1015       N  0.66073248  0.40722144  0.78385842    -0.32800
C1016       C  0.67120252  0.41577460  0.79758374    -0.10400
C1017       C  0.68447416  0.42741787  0.78941132    -0.29200
N1018       N  0.68476805  0.44066078  0.72017637    -0.45800
C1019       C  0.67271098  0.43338375  0.70704798    -0.05100
C1020       C  0.66130407  0.42000117  0.71514579    -0.22400
H1021       H  0.64729790  0.40033226  0.74718679     0.19400
H1022       H  0.69992127  0.44603798  0.75684232     0.18200
H1023       H  0.69412847  0.43668905  0.79671476     0.14500
H1024       H  0.64961926  0.41281450  0.70846874     0.14300
H1025       H  0.64949061  0.39827619  0.78575423     0.32500
H1026       H  0.69412830  0.45163359  0.71821283     0.35200
C1027       C  0.55210689  0.48923447  0.83411348     0.20800
C1028       C  0.54813481  0.50785766  0.82782424    -0.39000
C1029       C  0.53769322  0.50941713  0.81076172     0.19800
C1030       C  0.53156069  0.49361181  0.80091662     0.22500
C1031       C  0.53561637  0.47506954  0.80710758    -0.39500
C1032       C  0.54615025  0.47351957  0.82399635     0.21300
N1033       N  0.56325366  0.48381173  0.84885349    -0.32800
C1034       C  0.56465385  0.46455113  0.84782417    -0.10400
C1035       C  0.55400052  0.45765329  0.83262512    -0.29200
N1036       N  0.52274735  0.49868241  0.78471503    -0.45800
C1037       C  0.52338292  0.51786269  0.78397822    -0.05100
C1038       C  0.53257808  0.52512587  0.80002571    -0.22400
H1039       H  0.55337232  0.52016427  0.83528622     0.19400
H1040       H  0.53147045  0.46271754  0.79897975     0.18200
H1041       H  0.55313649  0.44305277  0.82778067     0.14500
H1042       H  0.53558081  0.53980429  0.80314563     0.14300
H1043       H  0.57056066  0.49269547  0.85816959     0.32500
H1044       H  0.51729504  0.48948701  0.77442151     0.35200
C1045       C  0.66644519  0.41725209  0.99062115     0.20800
C1046       C  0.65980096  0.41651162  0.00944101    -0.39000
C1047       C  0.67347113  0.41122790  0.02335919     0.19800
C1048       C  0.69221639  0.40700805  0.01868104     0.22500
C1049       C  0.69880893  0.40771079  0.99995586    -0.39500
C1050       C  0.68521482  0.41295182  0.98611675     0.21300
N1051       N  0.65642894  0.42197947  0.97487133    -0.32800
C1052       C  0.66887462  0.42066135  0.96020116    -0.10400
C1053       C  0.68698744  0.41496805  0.96671885    -0.29200
N1054       N  0.70235406  0.40186322  0.03410445    -0.45800
C1055       C  0.69018821  0.40263371  0.04894297    -0.05100
C1056       C  0.67193725  0.40860909  0.04282404    -0.22400
H1057       H  0.64507715  0.41973327  0.01295644     0.19400
H1058       H  0.71349051  0.40429003  0.99641123     0.18200
H1059       H  0.69978138  0.41282316  0.95844082     0.14500
H1060       H  0.65920572  0.41017360  0.05127987     0.14300
H1061       H  0.64197603  0.42587712  0.97418834     0.32500
H1062       H  0.71681170  0.39777725  0.03437379     0.35200
C1063       C  0.38772485  0.81143669  0.56019245     0.20800
C1064       C  0.38298497  0.81562398  0.54129719    -0.39000
C1065       C  0.36873454  0.80475505  0.53305454     0.19800
C1066       C  0.35958647  0.79104883  0.54302412     0.22500
C1067       C  0.36433970  0.78685770  0.56191787    -0.39500
C1068       C  0.37887897  0.79743568  0.57002383     0.21300
N1069       N  0.40230278  0.81812954  0.57036303    -0.32800
C1070       C  0.40300884  0.80805491  0.58659653    -0.10400
C1071       C  0.38852026  0.79511886  0.58698756    -0.29200
N1072       N  0.34835459  0.78107480  0.53140909    -0.45800
C1073       C  0.35078158  0.78808977  0.51383843    -0.05100
C1074       C  0.36315798  0.80307788  0.51433914    -0.22400
H1075       H  0.39070473  0.82571055  0.53323049     0.19400
H1076       H  0.35805575  0.77534725  0.56933797     0.18200
H1077       H  0.38603465  0.78470823  0.59773470     0.14500
H1078       H  0.36865587  0.81056032  0.50240003     0.14300
H1079       H  0.41195194  0.82806083  0.56596342     0.32500
H1080       H  0.34099644  0.76905644  0.53492241     0.35200
C1081       C  0.50786527  0.70452482  0.68580353     0.20800
C1082       C  0.50666996  0.68958121  0.69864041    -0.39000
C1083       C  0.51125557  0.67129643  0.69142802     0.19800
C1084       C  0.51646387  0.66796213  0.67276829     0.22500
C1085       C  0.51755239  0.68295446  0.65982818    -0.39500
C1086       C  0.51306210  0.70134633  0.66710273     0.21300
N1087       N  0.50319987  0.72302193  0.68899059    -0.32800
C1088       C  0.50536417  0.73180816  0.67222469    -0.10400
C1089       C  0.51142866  0.71873368  0.65820672    -0.29200
N1090       N  0.51975734  0.64915932  0.66948816    -0.45800
C1091       C  0.51674218  0.64053399  0.68626416    -0.05100
C1092       C  0.51140682  0.65395869  0.70019834    -0.22400
H1093       H  0.50226175  0.69198878  0.71317364     0.19400
H1094       H  0.52132568  0.68047180  0.64512822     0.18200
H1095       H  0.51324781  0.72141192  0.64326879     0.14500
H1096       H  0.50790925  0.65139053  0.71482652     0.14300
H1097       H  0.49771067  0.72910359  0.70148816     0.32500
H1098       H  0.52389249  0.64262251  0.65668205     0.35200
C1099       C  0.51916604  0.91957786  0.64627904     0.20800
C1100       C  0.51967204  0.93753338  0.63778644    -0.39000
C1101       C  0.52691336  0.95220573  0.64915445     0.19800
C1102       C  0.53301590  0.94914757  0.66760943     0.22500
C1103       C  0.53269058  0.93116703  0.67602940    -0.39500
C1104       C  0.52560097  0.91647934  0.66462146     0.21300
N1105       N  0.51183673  0.90370626  0.63889158    -0.32800
C1106       C  0.51364724  0.89031485  0.65254225    -0.10400
C1107       C  0.52236443  0.89772275  0.66877300    -0.29200
N1108       N  0.53795028  0.96555346  0.67591375    -0.45800
C1109       C  0.53507325  0.97927960  0.66273338    -0.05100
C1110       C  0.52832766  0.97144784  0.64573836    -0.22400
H1111       H  0.51433056  0.94000668  0.62354820     0.19400
H1112       H  0.53715526  0.92890405  0.69058671     0.18200
H1113       H  0.52508816  0.89064521  0.68210511     0.14500
H1114       H  0.52406415  0.97893927  0.63299843     0.14300
H1115       H  0.50556876  0.90222621  0.62549335     0.32500
H1116       H  0.54250718  0.96735209  0.68993766     0.35200
C1117       C  0.60901287  0.59737899  0.58472971     0.20800
C1118       C  0.61908552  0.58680631  0.59855802    -0.39000
C1119       C  0.61134511  0.56939852  0.60319840     0.19800
C1120       C  0.59508163  0.56291125  0.59441975     0.22500
C1121       C  0.58494090  0.57354212  0.58082086    -0.39500
C1122       C  0.59244383  0.59101981  0.57648844     0.21300
N1123       N  0.61352104  0.61413855  0.57739554    -0.32800
C1124       C  0.59946722  0.61847652  0.56470372    -0.10400
C1125       C  0.58612158  0.60441134  0.56377849    -0.29200
N1126       N  0.59168155  0.54521296  0.59982459    -0.45800
C1127       C  0.60573385  0.54040401  0.61227790    -0.05100
C1128       C  0.61816837  0.55518191  0.61496876    -0.22400
H1129       H  0.63214537  0.59157910  0.60494056     0.19400
H1130       H  0.57232787  0.56840908  0.57383871     0.18200
H1131       H  0.57366116  0.60383599  0.55469219     0.14500
H1132       H  0.63126495  0.55492598  0.62316378     0.14300
H1133       H  0.62531601  0.62213674  0.58083662     0.32500
H1134       H  0.58096680  0.53655124  0.59465232     0.35200
C1135       C  0.48620327  0.69981377  0.44756666     0.20800
C1136       C  0.47313918  0.71205817  0.43812519    -0.39000
C1137       C  0.45405741  0.70686161  0.43828395     0.19800
C1138       C  0.44834472  0.69059146  0.44700615     0.22500
C1139       C  0.46137996  0.67851187  0.45679630    -0.39500
C1140       C  0.48048210  0.68381845  0.45678028     0.21300
N1141       N  0.50503960  0.70196589  0.44990390    -0.32800
C1142       C  0.51138221  0.68742296  0.46097794    -0.10400
C1143       C  0.49645166  0.67580711  0.46555157    -0.29200
N1144       N  0.42929542  0.68916069  0.44552069    -0.45800
C1145       C  0.42282658  0.70482763  0.43605483    -0.05100
C1146       C  0.43788611  0.71616743  0.43137151    -0.22400
H1147       H  0.47746800  0.72489835  0.43141698     0.19400
H1148       H  0.45693888  0.66608344  0.46415885     0.18200
H1149       H  0.49712767  0.66337164  0.47440780     0.14500
H1150       H  0.43702778  0.72975465  0.42437408     0.14300
H1151       H  0.51294290  0.71303966  0.44490134     0.32500
H1152       H  0.42113645  0.67875453  0.45140525     0.35200
C1153       C  0.70240626  0.69621094  0.45732554     0.20800
C1154       C  0.72214960  0.69472625  0.46064110    -0.39000
C1155       C  0.73362017  0.70011957  0.44561899     0.19800
C1156       C  0.72592767  0.70651930  0.42863771     0.22500
C1157       C  0.70617441  0.70795588  0.42529985    -0.39500
C1158       C  0.69470150  0.70255356  0.44032745     0.21300
N1159       N  0.68858083  0.69205569  0.46939431    -0.32800
C1160       C  0.67186337  0.69576981  0.46011823    -0.10400
C1161       C  0.67510854  0.70232853  0.44187228    -0.29200
N1162       N  0.73978054  0.71075726  0.41662494    -0.45800
C1163       C  0.75649449  0.70699466  0.42590990    -0.05100
C1164       C  0.75321279  0.70031737  0.44409721    -0.22400
H1165       H  0.72812935  0.68974188  0.47395677     0.19400
H1166       H  0.70019183  0.71293982  0.41198517     0.18200
H1167       H  0.66460293  0.70642260  0.43122839     0.14500
H1168       H  0.76369966  0.69613601  0.45472698     0.14300
H1169       H  0.69050124  0.68704724  0.48315821     0.32500
H1170       H  0.73788135  0.71578047  0.40284803     0.35200
C1171       C  0.69719083  0.42897221  0.48778894     0.20800
C1172       C  0.70363770  0.43048445  0.50670242    -0.39000
C1173       C  0.68944289  0.43132212  0.52061493     0.19800
C1174       C  0.67031811  0.43101057  0.51590785     0.22500
C1175       C  0.66389306  0.42932370  0.49704235    -0.39500
C1176       C  0.67807287  0.42815786  0.48318295     0.21300
N1177       N  0.70769357  0.42899930  0.47198041    -0.32800
C1178       C  0.69525953  0.42803548  0.45719368    -0.10400
C1179       C  0.67661827  0.42730233  0.46362445    -0.29200
N1180       N  0.65960409  0.43308534  0.53149966    -0.45800
C1181       C  0.67187370  0.43452643  0.54636823    -0.05100
C1182       C  0.69069225  0.43337688  0.54016626    -0.22400
H1183       H  0.71857935  0.43129029  0.51028513     0.19400
H1184       H  0.64891378  0.42926893  0.49340582     0.18200
H1185       H  0.66370658  0.42727841  0.45514896     0.14500
H1186       H  0.70347195  0.43464667  0.54868628     0.14300
H1187       H  0.72250681  0.43013968  0.47127804     0.32500
H1188       H  0.64473663  0.43371094  0.53195950     0.35200
C1189       C  0.68669126  0.40127566  0.27274735     0.20800
C1190       C  0.69043407  0.38553129  0.26061451    -0.39000
C1191       C  0.68924805  0.38917306  0.24102817     0.19800
C1192       C  0.68442522  0.40704702  0.23412084     0.22500
C1193       C  0.68108192  0.42277182  0.24619719    -0.39500
C1194       C  0.68247038  0.41919498  0.26566671     0.21300
N1195       N  0.68811828  0.40198746  0.29184945    -0.32800
C1196       C  0.68514821  0.42056727  0.29679793    -0.10400
C1197       C  0.68153606  0.43164157  0.28084262    -0.29200
N1198       N  0.68518740  0.40714191  0.21507666    -0.45800
C1199       C  0.69096422  0.38932518  0.20971679    -0.05100
C1200       C  0.69364455  0.37767235  0.22549873    -0.22400
H1201       H  0.69457447  0.37164645  0.26600014     0.19400
H1202       H  0.67821101  0.43691932  0.24080562     0.18200
H1203       H  0.67936073  0.44692897  0.28035113     0.14500
H1204       H  0.69898672  0.36304963  0.22562700     0.14300
H1205       H  0.69200551  0.39078197  0.30083148     0.32500
H1206       H  0.68321405  0.41890787  0.20635724     0.35200
C1207       C  0.80310898  0.52458885  0.36489264     0.20800
C1208       C  0.82283133  0.52551056  0.36730132    -0.39000
C1209       C  0.83179708  0.53814243  0.35549482     0.19800
C1210       C  0.82186328  0.54936408  0.34249198     0.22500
C1211       C  0.80208526  0.54829525  0.33993992    -0.39500
C1212       C  0.79313612  0.53534545  0.35154581     0.21300
N1213       N  0.79173012  0.51239660  0.37317654    -0.32800
C1214       C  0.77443594  0.51504720  0.36483246    -0.10400
C1215       C  0.77468474  0.52934295  0.35132025    -0.29200
N1216       N  0.83395598  0.55888143  0.33181072    -0.45800
C1217       C  0.85163643  0.55322961  0.33778429    -0.05100
C1218       C  0.85085305  0.54041638  0.35257449    -0.22400
H1219       H  0.83075212  0.51632626  0.37698336     0.19400
H1220       H  0.79440052  0.55624026  0.32908409     0.18200
H1221       H  0.76319247  0.53405779  0.34199025     0.14500
H1222       H  0.86266130  0.53278640  0.35935146     0.14300
H1223       H  0.79581663  0.50207650  0.38309936     0.32500
H1224       H  0.83048997  0.56736447  0.32018416     0.35200
loop_ 
_geom_bond_atom_site_label_1 
_geom_bond_atom_site_label_2 
_geom_bond_distance 
_geom_bond_site_symmetry_2 
_ccdc_geom_bond_type 
N1            N2   1.324       .  A
N1            C5   1.353       .  A
N1           Cu9   2.101       .  S
N2            C3   1.340       .  A
N2           Cu8   2.067       .  S
C3            C4   1.379       .  A
C3            H6   1.082       .  S
C4            C5   1.389       .  A
C4         C1196   1.476       .  S
C5            H7   1.082       .  S
Cu8          N11   2.066       .  S
Cu9          N19   2.101       .  S
Cu10         N12   2.068       .  S
Cu10         N18   2.067       .  S
N11          N12   1.320       .  A
N11          C15   1.346       .  A
N12          C13   1.343       .  A
C13          C14   1.384       .  A
C13          H16   1.082       .  S
C14          C15   1.384       .  A
C14        C1214   1.472       .  S
C15          H17   1.082       .  S
N18          N19   1.323       .  A
N18          C22   1.342       .  A
N19          C20   1.351       .  A
C20          C21   1.390       .  A
C20          H23   1.082       .  S
C21          C22   1.379       .  A
C21        C1178   1.477       .  S
C22          H24   1.082       .  S
N25          N26   1.322       .  A
N25          C29   1.354       .  A
N25         Cu33   2.119       .  S
N26          C27   1.343       .  A
N26         Cu32   2.055       .  S
C27          C28   1.379       .  A
C27          H30   1.082       .  S
C28          C29   1.394       .  A
C28        C1142   1.483       .  S
C29          H31   1.082       .  S
Cu32         N35   2.054       .  S
Cu33         N43   2.120       .  S
Cu34         N36   2.063       .  S
Cu34         N42   2.065       .  S
N35          N36   1.319       .  A
N35          C39   1.338       .  A
N36          C37   1.348       .  A
C37          C38   1.385       .  A
C37          H40   1.082       .  S
C38          C39   1.380       .  A
C38        C1124   1.467       .  S
C39          H41   1.082       .  S
N42          N43   1.326       .  A
N42          C46   1.341       .  A
N43          C44   1.354       .  A
C44          C45   1.392       .  A
C44          H47   1.082       .  S
C45          C46   1.378       .  A
C45        C1160   1.482       .  S
C46          H48   1.081       .  S
N49          N50   1.324       .  A
N49          C53   1.354       .  A
N49         Cu57   2.119       .  S
N50          C51   1.343       .  A
N50         Cu56   2.068       .  S
C51          C52   1.379       .  A
C51          H54   1.082       .  S
C52          C53   1.393       .  A
C52        C1106   1.484       .  S
C53          H55   1.082       .  S
Cu56         N59   2.066       .  S
Cu57         N67   2.120       .  S
Cu58         N60   2.065       .  S
Cu58         N66   2.066       .  S
N59          N60   1.319       .  A
N59          C63   1.344       .  A
N60          C61   1.345       .  A
C61          C62   1.384       .  A
C61          H64   1.082       .  S
C62          C63   1.383       .  A
C62        C1070   1.471       .  S
C63          H65   1.082       .  S
N66          N67   1.325       .  A
N66          C70   1.343       .  A
N67          C68   1.355       .  A
C68          C69   1.391       .  A
C68          H71   1.082       .  S
C69          C70   1.376       .  A
C69        C1088   1.477       .  S
C70          H72   1.082       .  S
N73          N74   1.325       .  A
N73          C77   1.355       .  A
N73         Cu81   2.129       .  S
N74          C75   1.345       .  A
N74         Cu80   2.074       .  S
C75          C76   1.381       .  A
C75          H78   1.082       .  S
C76          C77   1.396       .  A
C76        C1052   1.489       .  S
C77          H79   1.082       .  S
Cu80         N83   2.072       .  S
Cu81         N91   2.126       .  S
Cu82         N84   2.058       .  S
Cu82         N90   2.057       .  S
N83          N84   1.319       .  A
N83          C87   1.348       .  A
N84          C85   1.341       .  A
C85          C86   1.382       .  A
C85          H88   1.082       .  S
C86          C87   1.387       .  A
C86        C1034   1.474       .  S
C87          H89   1.082       .  S
N90          N91   1.322       .  A
N90          C94   1.339       .  A
N91          C92   1.359       .  A
C92          C93   1.399       .  A
C92          H95   1.082       .  S
C93          C94   1.378       .  A
C93        C1016   1.488       .  S
C94          H96   1.082       .  S
N97          N98   1.325       .  A
N97         C101   1.358       .  A
N97        Cu105   2.128       .  S
N98          C99   1.337       .  A
N98        Cu104   2.052       .  S
C99         C100   1.374       .  A
C99         H102   1.082       .  S
C100        C101   1.396       .  A
C100        C980   1.481       .  S
C101        H103   1.082       .  S
Cu104       N107   2.051       .  S
Cu105       N115   2.128       .  S
Cu106       N108   2.055       .  S
Cu106       N114   2.057       .  S
N107        N108   1.317       .  A
N107        C111   1.345       .  A
N108        C109   1.340       .  A
C109        C110   1.382       .  A
C109        H112   1.082       .  S
C110        C111   1.383       .  A
C110        C998   1.464       .  S
C111        H113   1.082       .  S
N114        N115   1.325       .  A
N114        C118   1.340       .  A
N115        C116   1.356       .  A
C116        C117   1.394       .  A
C116        H119   1.082       .  S
C117        C118   1.377       .  A
C117        C965   1.482       .  S
C118        H120   1.082       .  S
N121        N122   1.321   1_556  A
N121        C125   1.356       .  A
N121       Cu129   2.109       .  S
N122        C123   1.339       .  A
N122       Cu128   2.058       .  S
C123        C124   1.381   1_554  A
C123        H126   1.081       .  S
C124        C125   1.395       .  A
C124        C926   1.486       .  S
C125        H127   1.082       .  S
Cu128       N131   2.054       .  S
Cu129       N139   2.112       .  S
Cu130       N132   2.086       .  S
Cu130       N138   2.090       .  S
N131        N132   1.319       .  A
N131        C135   1.339       .  A
N132        C133   1.351       .  A
C133        C134   1.391       .  A
C133        H136   1.082       .  S
C134        C135   1.382       .  A
C134        C911   1.478       .  S
C135        H137   1.081       .  S
N138        N139   1.326   1_554  A
N138        C142   1.344       .  A
N139        C140   1.354       .  A
C140        C141   1.389       .  A
C140        H143   1.082       .  S
C141        C142   1.383   1_556  A
C141        C944   1.484       .  S
C142        H144   1.082       .  S
N145        N146   1.323       .  A
N145        C149   1.355       .  A
N145       Cu153   2.123       .  S
N146        C147   1.342       .  A
N146       Cu152   2.060       .  S
C147        C148   1.379       .  A
C147        H150   1.082       .  S
C148        C149   1.395       .  A
C148        C872   1.485       .  S
C149        H151   1.082       .  S
Cu152       N155   2.059       .  S
Cu153       N163   2.123       .  S
Cu154       N156   2.068       .  S
Cu154       N162   2.070       .  S
N155        N156   1.319       .  A
N155        C159   1.340       .  A
N156        C157   1.349       .  A
C157        C158   1.384       .  A
C157        H160   1.082       .  S
C158        C159   1.379       .  A
C158        C854   1.464   1_565  S
C159        H161   1.082   1_565  S
N162        N163   1.326       .  A
N162        C166   1.340       .  A
N163        C164   1.357       .  A
C164        C165   1.392       .  A
C164        H167   1.082       .  S
C165        C166   1.376       .  A
C165        C890   1.480       .  S
C166        H168   1.082       .  S
N169        N170   1.325       .  A
N169        C173   1.357       .  A
N169       Cu177   2.132       .  S
N170        C171   1.344       .  A
N170       Cu176   2.078       .  S
C171        C172   1.382       .  A
C171        H174   1.082       .  S
C172        C173   1.395       .  A
C172        C818   1.490       .  S
C173        H175   1.082       .  S
Cu176       N179   2.075       .  S
Cu177       N187   2.131       .  S
Cu178       N180   2.061       .  S
Cu178       N186   2.062       .  S
N179        N180   1.320       .  A
N179        C183   1.347       .  A
N180        C181   1.343       .  A
C181        C182   1.380       .  A
C181        H184   1.082       .  S
C182        C183   1.385       .  A
C182        C836   1.468       .  S
C183        H185   1.082       .  S
N186        N187   1.324       .  A
N186        C190   1.341       .  A
N187        C188   1.359       .  A
C188        C189   1.397       .  A
C188        H191   1.082       .  S
C189        C190   1.377       .  A
C189        C800   1.485       .  S
C190        H192   1.082       .  S
N193        N194   1.325       .  A
N193        C197   1.360       .  A
N193       Cu201   2.149       .  S
N194        C195   1.341       .  A
N194       Cu200   2.053       .  S
C195        C196   1.375       .  A
C195        H198   1.082       .  S
C196        C197   1.400       .  A
C196        C764   1.488       .  S
C197        H199   1.082       .  S
Cu200       N203   2.061       .  S
Cu201       N211   2.148       .  S
Cu202       N204   2.051       .  S
Cu202       N210   2.052       .  S
N203        N204   1.318       .  A
N203        C207   1.345       .  A
N204        C205   1.341       .  A
C205        C206   1.384       .  A
C205        H208   1.081       .  S
C206        C207   1.386       .  A
C206        C749   1.474       .  S
C207        H209   1.082       .  S
N210        N211   1.322       .  A
N210        C214   1.341       .  A
N211        C212   1.360       .  A
C212        C213   1.402       .  A
C212        H215   1.082       .  S
C213        C214   1.379       .  A
C213        C782   1.494       .  S
C214        H216   1.081       .  S
N217        N218   1.323       .  A
N217        C221   1.358   1_455  A
N217       Cu225   2.136       .  S
N218        C219   1.343       .  A
N218       Cu224   2.063       .  S
C219        C220   1.380       .  A
C219        H222   1.082       .  S
C220        C221   1.398   1_455  A
C220        C695   1.491   1_455  S
C221        H223   1.082       .  S
Cu224       N227   2.064       .  S
Cu225       N235   2.137       .  S
Cu226       N228   2.076       .  S
Cu226       N234   2.077       .  S
N227        N228   1.320       .  A
N227        C231   1.343       .  A
N228        C229   1.348       .  A
C229        C230   1.385       .  A
C229        H232   1.082       .  S
C230        C231   1.381       .  A
C230        C728   1.471       .  S
C231        H233   1.082       .  S
N234        N235   1.326       .  A
N234        C238   1.345       .  A
N235        C236   1.356       .  A
C236        C237   1.395       .  A
C236        H239   1.082   1_455  S
C237        C238   1.381       .  A
C237        C713   1.491       .  S
C238        H240   1.082       .  S
N241        N242   1.324       .  A
N241        C245   1.358       .  A
N241       Cu249   2.128       .  S
N242        C243   1.343       .  A
N242       Cu248   2.077   1_556  S
C243        C244   1.382       .  A
C243        H246   1.082   1_556  S
C244        C245   1.396       .  A
C244        C674   1.491       .  S
C245        H247   1.082       .  S
Cu248       N251   2.074       .  S
Cu249       N259   2.127       .  S
Cu250       N252   2.060   1_556  S
Cu250       N258   2.057       .  S
N251        N252   1.319       .  A
N251        C255   1.347       .  A
N252        C253   1.344       .  A
C253        C254   1.382       .  A
C253        H256   1.082       .  S
C254        C255   1.386       .  A
C254        C731   1.472       .  S
C255        H257   1.082       .  S
N258        N259   1.323       .  A
N258        C262   1.338       .  A
N259        C260   1.360       .  A
C260        C261   1.398       .  A
C260        H263   1.082       .  S
C261        C262   1.378       .  A
C261        C947   1.489       .  S
C262        H264   1.081       .  S
N265        N266   1.326       .  A
N265        C269   1.356       .  A
N265       Cu273   2.133       .  S
N266        C267   1.345       .  A
N266       Cu272   2.078       .  S
C267        C268   1.380       .  A
C267        H270   1.082       .  S
C268        C269   1.395       .  A
C268        C767   1.489       .  S
C269        H271   1.082       .  S
Cu272       N275   2.076       .  S
Cu273       N283   2.131       .  S
Cu274       N276   2.064       .  S
Cu274       N282   2.065       .  S
N275        N276   1.320       .  A
N275        C279   1.349       .  A
N276        C277   1.343       .  A
C277        C278   1.380       .  A
C277        H280   1.082       .  S
C278        C279   1.384       .  A
C278       C1217   1.468       .  S
C279        H281   1.082       .  S
N282        N283   1.324       .  A
N282        C286   1.342       .  A
N283        C284   1.358       .  A
C284        C285   1.396       .  A
C284        H287   1.082       .  S
C285        C286   1.379       .  A
C285        C710   1.488       .  S
C286        H288   1.082       .  S
N289        N290   1.324       .  A
N289        C293   1.355       .  A
N289       Cu297   2.125       .  S
N290        C291   1.341       .  A
N290       Cu296   2.058       .  S
C291        C292   1.378       .  A
C291        H294   1.081       .  S
C292        C293   1.395       .  A
C292       C1163   1.483       .  S
C293        H295   1.082       .  S
Cu296       N299   2.057       .  S
Cu297       N307   2.125       .  S
Cu298       N300   2.068       .  S
Cu298       N306   2.069       .  S
N299        N300   1.319       .  A
N299        C303   1.346       .  A
N300        C301   1.342       .  A
C301        C302   1.383       .  A
C301        H304   1.082       .  S
C302        C303   1.383       .  A
C302        C746   1.468       .  S
C303        H305   1.082       .  S
N306        N307   1.324       .  A
N306        C310   1.343       .  A
N307        C308   1.356       .  A
C308        C309   1.396       .  A
C308        H311   1.082       .  S
C309        C310   1.380       .  A
C309        C821   1.488       .  S
C310        H312   1.082       .  S
N313        N314   1.323   1_655  A
N313        C317   1.361       .  A
N313       Cu321   2.141       .  S
N314        C315   1.339       .  A
N314       Cu320   2.056       .  S
C315        C316   1.379   1_455  A
C315        H318   1.081       .  S
C316        C317   1.402       .  A
C316        C785   1.494   1_545  S
C317        H319   1.082       .  S
Cu320       N323   2.055       .  S
Cu321       N331   2.143       .  S
Cu322       N324   2.074       .  S
Cu322       N330   2.077       .  S
N323        N324   1.317       .  A
N323        C327   1.339       .  A
N324        C325   1.350       .  A
C325        C326   1.388       .  A
C325        H328   1.082       .  S
C326        C327   1.382       .  A
C326        C659   1.473       .  S
C327        H329   1.082       .  S
N330        N331   1.328   1_455  A
N330        C334   1.343       .  A
N331        C332   1.358       .  A
C332        C333   1.395       .  A
C332        H335   1.082       .  S
C333        C334   1.377   1_655  A
C333        C692   1.485       .  S
C334        H336   1.082       .  S
N337        N338   1.324       .  A
N337        C341   1.352       .  A
N337       Cu345   2.112       .  S
N338        C339   1.344       .  A
N338       Cu344   2.069   1_565  S
C339        C340   1.379       .  A
C339        H342   1.082   1_565  S
C340        C341   1.391       .  A
C340        C641   1.479       .  S
C341        H343   1.082       .  S
Cu344       N347   2.071       .  S
Cu345       N355   2.111       .  S
Cu346       N348   2.065   1_565  S
Cu346       N354   2.063       .  S
N347        N348   1.321       .  A
N347        C351   1.348       .  A
N348        C349   1.341       .  A
C349        C350   1.381       .  A
C349        H352   1.082       .  S
C350        C351   1.384       .  A
C350        C656   1.467       .  S
C351        H353   1.082       .  S
N354        N355   1.322       .  A
N354        C358   1.343       .  A
N355        C356   1.353       .  A
C356        C357   1.393       .  A
C356        H359   1.082       .  S
C357        C358   1.379       .  A
C357        C623   1.481       .  S
C358        H360   1.082       .  S
N361        N362   1.321       .  A
N361        C365   1.358       .  A
N361       Cu369   2.126       .  S
N362        C363   1.338       .  A
N362       Cu368   2.042       .  S
C363        C364   1.376       .  A
C363        H366   1.082       .  S
C364        C365   1.398       .  A
C364        C638   1.483       .  S
C365        H367   1.082       .  S
Cu368       N371   2.041       .  S
Cu369       N379   2.129       .  S
Cu370       N372   2.082       .  S
Cu370       N378   2.085       .  S
N371        N372   1.318       .  A
N371        C375   1.337       .  A
N372        C373   1.351       .  A
C373        C374   1.391       .  A
C373        H376   1.082       .  S
C374        C375   1.379       .  A
C374        C839   1.474       .  S
C375        H377   1.081       .  S
N378        N379   1.328       .  A
N378        C382   1.344       .  A
N379        C380   1.355       .  A
C380        C381   1.392       .  A
C380        H383   1.082       .  S
C381        C382   1.380       .  A
C381        C875   1.487       .  S
C382        H384   1.081       .  S
N385        N386   1.322       .  A
N385        C389   1.356       .  A
N385       Cu393   2.120       .  S
N386        C387   1.340       .  A
N386       Cu392   2.052       .  S
C387        C388   1.378   1_545  A
C387        H390   1.082       .  S
C388        C389   1.396   1_565  A
C388       C1109   1.485       .  S
C389        H391   1.082       .  S
Cu392       N395   2.053       .  S
Cu393       N403   2.121       .  S
Cu394       N396   2.071       .  S
Cu394       N402   2.072       .  S
N395        N396   1.319       .  A
N395        C399   1.341       .  A
N396        C397   1.347       .  A
C397        C398   1.389       .  A
C397        H400   1.082       .  S
C398        C399   1.380       .  A
C398        C857   1.472       .  S
C399        H401   1.081       .  S
N402        N403   1.325       .  A
N402        C406   1.341       .  A
N403        C404   1.357       .  A
C404        C405   1.394       .  A
C404        H407   1.082       .  S
C405        C406   1.378       .  A
C405        C983   1.483       .  S
C406        H408   1.082       .  S
N409        N410   1.322   1_554  A
N409        C413   1.359   1_554  A
N409       Cu417   2.123       .  S
N410        C411   1.336       .  A
N410       Cu416   2.045   1_556  S
C411        C412   1.374       .  A
C411        H414   1.082       .  S
C412        C413   1.397       .  A
C412        C893   1.480       .  S
C413        H415   1.082       .  S
Cu416       N419   2.047       .  S
Cu417       N427   2.125       .  S
Cu418       N420   2.070       .  S
Cu418       N426   2.073       .  S
N419        N420   1.317       .  A
N419        C423   1.342       .  A
N420        C421   1.346   1_565  A
C421        C422   1.386       .  A
C421        H424   1.082       .  S
C422        C423   1.381   1_545  A
C422        C602   1.468       .  S
C423        H425   1.082   1_554  S
N426        N427   1.327       .  A
N426        C430   1.342       .  A
N427        C428   1.355       .  A
C428        C429   1.392       .  A
C428        H431   1.082       .  S
C429        C430   1.378       .  A
C429        C620   1.482       .  S
C430        H432   1.082       .  S
N433        N434   1.323       .  A
N433        C437   1.356       .  A
N433       Cu441   2.131       .  S
N434        C435   1.344       .  A
N434       Cu440   2.063       .  S
C435        C436   1.380       .  A
C435        H438   1.082       .  S
C436        C437   1.396       .  A
C436        C677   1.488       .  S
C437        H439   1.082       .  S
Cu440       N443   2.064       .  S
Cu441       N451   2.132       .  S
Cu442       N444   2.071       .  S
Cu442       N450   2.072       .  S
N443        N444   1.321       .  A
N443        C447   1.342       .  A
N444        C445   1.346       .  A
C445        C446   1.384       .  A
C445        H448   1.082   1_556  S
C446        C447   1.381       .  A
C446        C605   1.469       .  S
C447        H449   1.082       .  S
N450        N451   1.325       .  A
N450        C454   1.345       .  A
N451        C452   1.356       .  A
C452        C453   1.396       .  A
C452        H455   1.082       .  S
C453        C454   1.381       .  A
C453        C587   1.492       .  S
C454        H456   1.082       .  S
N457        N458   1.325       .  A
N457        C461   1.358       .  A
N457       Cu465   2.137       .  S
N458        C459   1.343       .  A
N458       Cu464   2.073       .  S
C459        C460   1.381       .  A
C459        H462   1.081       .  S
C460        C461   1.397       .  A
C460        C584   1.493       .  S
C461        H463   1.082       .  S
Cu464       N467   2.070       .  S
Cu465       N475   2.136       .  S
Cu466       N468   2.046       .  S
Cu466       N474   2.047       .  S
N467        N468   1.319       .  A
N467        C471   1.345       .  A
N468        C469   1.341       .  A
C469        C470   1.378       .  A
C469        H472   1.082       .  S
C470        C471   1.384       .  A
C470       C1001   1.464       .  S
C471        H473   1.082       .  S
N474        N475   1.323       .  A
N474        C478   1.342       .  A
N475        C476   1.356       .  A
C476        C477   1.397       .  A
C476        H479   1.082       .  S
C477        C478   1.377       .  A
C477        C929   1.486       .  S
C478        H480   1.082       .  S
N481        N482   1.327       .  A
N481        C485   1.352       .  A
N481       Cu489   2.125       .  S
N482        C483   1.343       .  A
N482       Cu488   2.064       .  S
C483        C484   1.376       .  A
C483        H486   1.082       .  S
C484        C485   1.390       .  A
C484       C1199   1.474       .  S
C485        H487   1.082       .  S
Cu488       N491   2.061       .  S
Cu489       N499   2.124       .  S
Cu490       N492   2.060       .  S
Cu490       N498   2.059       .  S
N491        N492   1.318       .  A
N491        C495   1.346       .  A
N492        C493   1.342       .  A
C493        C494   1.381       .  A
C493        H496   1.082       .  S
C494        C495   1.383       .  A
C494        C908   1.463       .  S
C495        H497   1.082       .  S
N498        N499   1.322       .  A
N498        C502   1.338       .  A
N499        C500   1.359       .  A
C500        C501   1.398       .  A
C500        H503   1.082       .  S
C501        C502   1.378       .  A
C501       C1055   1.488       .  S
C502        H504   1.081       .  S
N505        N506   1.324       .  A
N505        C509   1.355       .  A
N505       Cu513   2.114       .  S
N506        C507   1.343       .  A
N506       Cu512   2.083       .  S
C507        C508   1.383       .  A
C507        H510   1.082       .  S
C508        C509   1.393       .  A
C508       C1091   1.488       .  S
C509        H511   1.082       .  S
Cu512       N515   2.081       .  S
Cu513       N523   2.114       .  S
Cu514       N516   2.063       .  S
Cu514       N522   2.060       .  S
N515        N516   1.320       .  A
N515        C519   1.349       .  A
N516        C517   1.342       .  A
C517        C518   1.382       .  A
C517        H520   1.082       .  S
C518        C519   1.388       .  A
C518       C1037   1.477       .  S
C519        H521   1.082       .  S
N522        N523   1.323       .  A
N522        C526   1.342       .  A
N523        C524   1.353       .  A
C524        C525   1.391       .  A
C524        H527   1.082       .  S
C525        C526   1.378       .  A
C525        C962   1.476       .  S
C526        H528   1.082       .  S
N529        N530   1.324       .  A
N529        C533   1.356       .  A
N529       Cu537   2.122       .  S
N530        C531   1.343       .  A
N530       Cu536   2.064       .  S
C531        C532   1.379       .  A
C531        H534   1.082       .  S
C532        C533   1.394       .  A
C532       C1145   1.484       .  S
C533        H535   1.082       .  S
Cu536       N539   2.066       .  S
Cu537       N547   2.121       .  S
Cu538       N540   2.067       .  S
Cu538       N546   2.067       .  S
N539        N540   1.321       .  A
N539        C543   1.344       .  A
N540        C541   1.344       .  A
C541        C542   1.383       .  A
C541        H544   1.082       .  S
C542        C543   1.384       .  A
C542       C1073   1.470       .  S
C543        H545   1.082       .  S
N546        N547   1.323       .  A
N546        C550   1.342       .  A
N547        C548   1.357       .  A
C548        C549   1.394       .  A
C548        H551   1.082       .  S
C549        C550   1.379       .  A
C549        C803   1.483       .  S
C550        H552   1.082       .  S
N553        N554   1.325       .  A
N553        C557   1.352       .  A
N553       Cu561   2.112       .  S
N554        C555   1.345       .  A
N554       Cu560   2.071       .  S
C555        C556   1.379       .  A
C555        H558   1.082       .  S
C556        C557   1.389       .  A
C556       C1019   1.477       .  S
C557        H559   1.082       .  S
Cu560       N563   2.069       .  S
Cu561       N571   2.111       .  S
Cu562       N564   2.060       .  S
Cu562       N570   2.062       .  S
N563        N564   1.320       .  A
N563        C567   1.345       .  A
N564        C565   1.342       .  A
C565        C566   1.380       .  A
C565        H568   1.082       .  S
C566        C567   1.383       .  A
C566       C1127   1.465       .  S
C567        H569   1.082       .  S
N570        N571   1.323       .  A
N570        C574   1.341       .  A
N571        C572   1.354       .  A
C572        C573   1.392       .  A
C572        H575   1.082       .  S
C573        C574   1.378       .  A
C573       C1181   1.479       .  S
C574        H576   1.082       .  S
C577        N583   1.345       .  A
C577        C582   1.383       .  A
C577        C578   1.408       .  A
C578        C579   1.406       .  A
C578        H589   1.082       .  S
C579        C588   1.386       .  A
C579        C580   1.382       .  A
C580        N586   1.348       .  A
C580        C581   1.412       .  A
C581        C582   1.410       .  A
C581        H590   1.082       .  S
C582        C585   1.391       .  A
N583        C584   1.359       .  A
N583        H593   1.045       .  S
C584        C585   1.401       .  A
C585        H591   1.082       .  S
N586        C587   1.361       .  A
N586        H594   1.044       .  S
C587        C588   1.398       .  A
C588        H592   1.082       .  S
C595        N601   1.343       .  A
C595        C600   1.385   1_554  A
C595        C596   1.403       .  A
C596        C597   1.402       .  A
C596        H607   1.082       .  S
C597        C606   1.378       .  A
C597        C598   1.385   1_554  A
C598        N604   1.341       .  A
C598        C599   1.402       .  A
C599        C600   1.401       .  A
C599        H608   1.083       .  S
C600        C603   1.376       .  A
N601        C602   1.354       .  A
N601        H611   1.044       .  S
C602        C603   1.394   1_554  A
C603        H609   1.083       .  S
N604        C605   1.354       .  A
N604        H612   1.047       .  S
C605        C606   1.394   1_556  A
C606        H610   1.082       .  S
C613        N619   1.343       .  A
C613        C618   1.383       .  A
C613        C614   1.407       .  A
C614        C615   1.404       .  A
C614        H625   1.082       .  S
C615        C624   1.384       .  A
C615        C616   1.384       .  A
C616        N622   1.345       .  A
C616        C617   1.408       .  A
C617        C618   1.406       .  A
C617        H626   1.082       .  S
C618        C621   1.386       .  A
N619        C620   1.357       .  A
N619        H629   1.046       .  S
C620        C621   1.397       .  A
C621        H627   1.082       .  S
N622        C623   1.359       .  A
N622        H630   1.042       .  S
C623        C624   1.396       .  A
C624        H628   1.082       .  S
C631        N637   1.342       .  A
C631        C636   1.383       .  A
C631        C632   1.406       .  A
C632        C633   1.403       .  A
C632        H643   1.082       .  S
C633        C642   1.383       .  A
C633        C634   1.383       .  A
C634        N640   1.347       .  A
C634        C635   1.410       .  A
C635        C636   1.407       .  A
C635        H644   1.082       .  S
C636        C639   1.389       .  A
N637        C638   1.358       .  A
N637        H647   1.044       .  S
C638        C639   1.398       .  A
C639        H645   1.082       .  S
N640        C641   1.359       .  A
N640        H648   1.041       .  S
C641        C642   1.395       .  A
C642        H646   1.082       .  S
C649        N655   1.338       .  A
C649        C654   1.385       .  A
C649        C650   1.396       .  A
C650        C651   1.396       .  A
C650        H661   1.083       .  S
C651        C660   1.369       .  A
C651        C652   1.384       .  A
C652        N658   1.348       .  A
C652        C653   1.409       .  A
C653        C654   1.409       .  A
C653        H662   1.082       .  S
C654        C657   1.385       .  A
N655        C656   1.352       .  A
N655        H665   1.044       .  S
C656        C657   1.397       .  A
C657        H663   1.082       .  S
N658        C659   1.358       .  A
N658        H666   1.047       .  S
C659        C660   1.392       .  A
C660        H664   1.082       .  S
C667        N673   1.354       .  A
C667        C672   1.383       .  A
C667        C668   1.411       .  A
C668        C669   1.412       .  A
C668        H679   1.082       .  S
C669        C678   1.384       .  A
C669        C670   1.384       .  A
C670        N676   1.349       .  A
C670        C671   1.405       .  A
C671        C672   1.406       .  A
C671        H680   1.082       .  S
C672        C675   1.378       .  A
N673        C674   1.360       .  A
N673        H683   1.042       .  S
C674        C675   1.398       .  A
C675        H681   1.082       .  S
N676        C677   1.356       .  A
N676        H684   1.042       .  S
C677        C678   1.402       .  A
C678        H682   1.082       .  S
C685        N691   1.351       .  A
C685        C690   1.384       .  A
C685        C686   1.408       .  A
C686        C687   1.409       .  A
C686        H697   1.082       .  S
C687        C696   1.381       .  A
C687        C688   1.383       .  A
C688        N694   1.352       .  A
C688        C689   1.408       .  A
C689        C690   1.410       .  A
C689        H698   1.082       .  S
C690        C693   1.382       .  A
N691        C692   1.357       .  A
N691        H701   1.045       .  S
C692        C693   1.399       .  A
C693        H699   1.082       .  S
N694        C695   1.358       .  A
N694        H702   1.044       .  S
C695        C696   1.400       .  A
C696        H700   1.082       .  S
C703        N709   1.353       .  A
C703        C708   1.384       .  A
C703        C704   1.410   1_655  A
C704        C705   1.411       .  A
C704        H715   1.082       .  S
C705        C714   1.383       .  A
C705        C706   1.384   1_455  A
C706        N712   1.350   1_655  A
C706        C707   1.406       .  A
C707        C708   1.407       .  A
C707        H716   1.082       .  S
C708        C711   1.379       .  A
N709        C710   1.359       .  A
N709        H719   1.043       .  S
C710        C711   1.398       .  A
C711        H717   1.082       .  S
N712        C713   1.357       .  A
N712        H720   1.044   1_455  S
C713        C714   1.402       .  A
C714        H718   1.082       .  S
C721        N727   1.345       .  A
C721        C726   1.385       .  A
C721        C722   1.404       .  A
C722        C723   1.404       .  A
C722        H733   1.082       .  S
C723        C732   1.378       .  A
C723        C724   1.385       .  A
C724        N730   1.344       .  A
C724        C725   1.403       .  A
C725        C726   1.403       .  A
C725        H734   1.082       .  S
C726        C729   1.377       .  A
N727        C728   1.355       .  A
N727        H737   1.045       .  S
C728        C729   1.395       .  A
C729        H735   1.082       .  S
N730        C731   1.355       .  A
N730        H738   1.046       .  S
C731        C732   1.395       .  A
C732        H736   1.082       .  S
C739        N745   1.344       .  A
C739        C744   1.386       .  A
C739        C740   1.403       .  A
C740        C741   1.403       .  A
C740        H751   1.083       .  S
C741        C750   1.376       .  A
C741        C742   1.385       .  A
C742        N748   1.342       .  A
C742        C743   1.401       .  A
C743        C744   1.400       .  A
C743        H752   1.083       .  S
C744        C747   1.374       .  A
N745        C746   1.355       .  A
N745        H755   1.045       .  S
C746        C747   1.392       .  A
C747        H753   1.082       .  S
N748        C749   1.355       .  A
N748        H756   1.046       .  S
C749        C750   1.396       .  A
C750        H754   1.082       .  S
C757        N763   1.346       .  A
C757        C762   1.383       .  A
C757        C758   1.410       .  A
C758        C759   1.407       .  A
C758        H769   1.082       .  S
C759        C768   1.388       .  A
C759        C760   1.383       .  A
C760        N766   1.347       .  A
C760        C761   1.411       .  A
C761        C762   1.409       .  A
C761        H770   1.082       .  S
C762        C765   1.391       .  A
N763        C764   1.359       .  A
N763        H773   1.044       .  S
C764        C765   1.400       .  A
C765        H771   1.082       .  S
N766        C767   1.359       .  A
N766        H774   1.046       .  S
C767        C768   1.399       .  A
C768        H772   1.082       .  S
C775        N781   1.351       .  A
C775        C780   1.384       .  A
C775        C776   1.405       .  A
C776        C777   1.408       .  A
C776        H787   1.082   1_655  S
C777        C786   1.376       .  A
C777        C778   1.383       .  A
C778        N784   1.355       .  A
C778        C779   1.410       .  A
C779        C780   1.413       .  A
C779        H788   1.082       .  S
C780        C783   1.382       .  A
N781        C782   1.357       .  A
N781        H791   1.046       .  S
C782        C783   1.403       .  A
C783        H789   1.082       .  S
N784        C785   1.360       .  A
N784        H792   1.047       .  S
C785        C786   1.400       .  A
C786        H790   1.082   1_655  S
C793        N799   1.343       .  A
C793        C798   1.384       .  A
C793        C794   1.403       .  A
C794        C795   1.401       .  A
C794        H805   1.083       .  S
C795        C804   1.378       .  A
C795        C796   1.383       .  A
C796        N802   1.353       .  A
C796        C797   1.415       .  A
C797        C798   1.414       .  A
C797        H806   1.082       .  S
C798        C801   1.393       .  A
N799        C800   1.356       .  A
N799        H809   1.041       .  S
C800        C801   1.402       .  A
C801        H807   1.082       .  S
N802        C803   1.361       .  A
N802        H810   1.044       .  S
C803        C804   1.394       .  A
C804        H808   1.083       .  S
C811        N817   1.353   1_655  A
C811        C816   1.383       .  A
C811        C812   1.409       .  A
C812        C813   1.410       .  A
C812        H823   1.082       .  S
C813        C822   1.382       .  A
C813        C814   1.384       .  A
C814        N820   1.351       .  A
C814        C815   1.407       .  A
C815        C816   1.408       .  A
C815        H824   1.082       .  S
C816        C819   1.381       .  A
N817        C818   1.359       .  A
N817        H827   1.043       .  S
C818        C819   1.399   1_455  A
C819        H825   1.082       .  S
N820        C821   1.358       .  A
N820        H828   1.042       .  S
C821        C822   1.400       .  A
C822        H826   1.082       .  S
C829        N835   1.343       .  A
C829        C834   1.385       .  A
C829        C830   1.401       .  A
C830        C831   1.401       .  A
C830        H841   1.083       .  S
C831        C840   1.372       .  A
C831        C832   1.385       .  A
C832        N838   1.346       .  A
C832        C833   1.404       .  A
C833        C834   1.404       .  A
C833        H842   1.082       .  S
C834        C837   1.377       .  A
N835        C836   1.354       .  A
N835        H845   1.048       .  S
C836        C837   1.394       .  A
C837        H843   1.082       .  S
N838        C839   1.355       .  A
N838        H846   1.046       .  S
C839        C840   1.395       .  A
C840        H844   1.082       .  S
C847        N853   1.337       .  A
C847        C852   1.386       .  A
C847        C848   1.400       .  A
C848        C849   1.397       .  A
C848        H859   1.082       .  S
C849        C858   1.376       .  A
C849        C850   1.384       .  A
C850        N856   1.342       .  A
C850        C851   1.406       .  A
C851        C852   1.404       .  A
C851        H860   1.082       .  S
C852        C855   1.384   1_545  A
N853        C854   1.351       .  A
N853        H863   1.050       .  S
C854        C855   1.396   1_545  A
C855        H861   1.082       .  S
N856        C857   1.357       .  A
N856        H864   1.047       .  S
C857        C858   1.393       .  A
C858        H862   1.082       .  S
C865        N871   1.345       .  A
C865        C870   1.383       .  A
C865        C866   1.409       .  A
C866        C867   1.407       .  A
C866        H877   1.082       .  S
C867        C876   1.387       .  A
C867        C868   1.383       .  A
C868        N874   1.344       .  A
C868        C869   1.408       .  A
C869        C870   1.405       .  A
C869        H878   1.082       .  S
C870        C873   1.385       .  A
N871        C872   1.359       .  A
N871        H881   1.046       .  S
C872        C873   1.397       .  A
C873        H879   1.082       .  S
N874        C875   1.359       .  A
N874        H882   1.044       .  S
C875        C876   1.399       .  A
C876        H880   1.082       .  S
C883        N889   1.353       .  A
C883        C888   1.383       .  A
C883        C884   1.414       .  A
C884        C885   1.414       .  A
C884        H895   1.082       .  S
C885        C894   1.393       .  A
C885        C886   1.384       .  A
C886        N892   1.339       .  A
C886        C887   1.400       .  A
C887        C888   1.398       .  A
C887        H896   1.083       .  S
C888        C891   1.373       .  A
N889        C890   1.360       .  A
N889        H899   1.045       .  S
C890        C891   1.393       .  A
C891        H897   1.083       .  S
N892        C893   1.355       .  A
N892        H900   1.045       .  S
C893        C894   1.401       .  A
C894        H898   1.082       .  S
C901        N907   1.346       .  A
C901        C906   1.385       .  A
C901        C902   1.408       .  A
C902        C903   1.407       .  A
C902        H913   1.082       .  S
C903        C912   1.385       .  A
C903        C904   1.384       .  A
C904        N910   1.338       .  A
C904        C905   1.399       .  A
C905        C906   1.396       .  A
C905        H914   1.083       .  S
C906        C909   1.373       .  A
N907        C908   1.356       .  A
N907        H917   1.045       .  S
C908        C909   1.389       .  A
C909        H915   1.083       .  S
N910        C911   1.355       .  A
N910        H918   1.046       .  S
C911        C912   1.399       .  A
C912        H916   1.082       .  S
C919        N925   1.353       .  A
C919        C924   1.383       .  A
C919        C920   1.410       .  A
C920        C921   1.412       .  A
C920        H931   1.082       .  S
C921        C930   1.382       .  A
C921        C922   1.384       .  A
C922        N928   1.347       .  A
C922        C923   1.401       .  A
C923        C924   1.403       .  A
C923        H932   1.082       .  S
C924        C927   1.373       .  A
N925        C926   1.360       .  A
N925        H935   1.044       .  S
C926        C927   1.396       .  A
C927        H933   1.082       .  S
N928        C929   1.355       .  A
N928        H936   1.043       .  S
C929        C930   1.403       .  A
C930        H934   1.082       .  S
C937        N943   1.354   1_455  A
C937        C942   1.383       .  A
C937        C938   1.416       .  A
C938        C939   1.415       .  A
C938        H949   1.082       .  S
C939        C948   1.396       .  A
C939        C940   1.383       .  A
C940        N946   1.339       .  A
C940        C941   1.400       .  A
C941        C942   1.397       .  A
C941        H950   1.083   1_556  S
C942        C945   1.374   1_456  A
N943        C944   1.362       .  A
N943        H953   1.041       .  S
C944        C945   1.392   1_556  A
C945        H951   1.082       .  S
N946        C947   1.356       .  A
N946        H954   1.045       .  S
C947        C948   1.404       .  A
C948        H952   1.082       .  S
C955        N961   1.346       .  A
C955        C960   1.385       .  A
C955        C956   1.404       .  A
C956        C957   1.404       .  A
C956        H967   1.082       .  S
C957        C966   1.376       .  A
C957        C958   1.384       .  A
C958        N964   1.350       .  A
C958        C959   1.407       .  A
C959        C960   1.408       .  A
C959        H968   1.082       .  S
C960        C963   1.381       .  A
N961        C962   1.355       .  A
N961        H971   1.045       .  S
C962        C963   1.398       .  A
C963        H969   1.082       .  S
N964        C965   1.357       .  A
N964        H972   1.046       .  S
C965        C966   1.397       .  A
C966        H970   1.082       .  S
C973        N979   1.351       .  A
C973        C978   1.385       .  A
C973        C974   1.405       .  A
C974        C975   1.406       .  A
C974        H985   1.082       .  S
C975        C984   1.376       .  A
C975        C976   1.384       .  A
C976        N982   1.352       .  A
C976        C977   1.406       .  A
C977        C978   1.408       .  A
C977        H986   1.082       .  S
C978        C981   1.376       .  A
N979        C980   1.356       .  A
N979        H989   1.043       .  S
C980        C981   1.398       .  A
C981        H987   1.082       .  S
N982        C983   1.358       .  A
N982        H990   1.044       .  S
C983        C984   1.397       .  A
C984        H988   1.082       .  S
C991        N997   1.345       .  A
C991        C996   1.385       .  A
C991        C992   1.403       .  A
C992        C993   1.403       .  A
C992       H1003   1.082       .  S
C993       C1002   1.375       .  A
C993        C994   1.386       .  A
C994       N1000   1.341       .  A
C994        C995   1.398       .  A
C995        C996   1.398       .  A
C995       H1004   1.082       .  S
C996        C999   1.370       .  A
N997        C998   1.355       .  A
N997       H1007   1.046       .  S
C998        C999   1.391       .  A
C999       H1005   1.082       .  S
N1000      C1001   1.352       .  A
N1000      H1008   1.049       .  S
C1001      C1002   1.395       .  A
C1002      H1006   1.082       .  S
C1009      N1015   1.342       .  A
C1009      C1014   1.383       .  A
C1009      C1010   1.405       .  A
C1010      C1011   1.402       .  A
C1010      H1021   1.083       .  S
C1011      C1020   1.382       .  A
C1011      C1012   1.384       .  A
C1012      N1018   1.348       .  A
C1012      C1013   1.412       .  A
C1013      C1014   1.410       .  A
C1013      H1022   1.082       .  S
C1014      C1017   1.392       .  A
N1015      C1016   1.358       .  A
N1015      H1025   1.041       .  S
C1016      C1017   1.401       .  A
C1017      H1023   1.082       .  S
N1018      C1019   1.358       .  A
N1018      H1026   1.047       .  S
C1019      C1020   1.394       .  A
C1020      H1024   1.082       .  S
C1027      N1033   1.346       .  A
C1027      C1032   1.384       .  A
C1027      C1028   1.407       .  A
C1028      C1029   1.406       .  A
C1028      H1039   1.082       .  S
C1029      C1038   1.383       .  A
C1029      C1030   1.384       .  A
C1030      N1036   1.340       .  A
C1030      C1031   1.401       .  A
C1031      C1032   1.399       .  A
C1031      H1040   1.083       .  S
C1032      C1035   1.374       .  A
N1033      C1034   1.357       .  A
N1033      H1043   1.046       .  S
C1034      C1035   1.394       .  A
C1035      H1041   1.082       .  S
N1036      C1037   1.355       .  A
N1036      H1044   1.045       .  S
C1037      C1038   1.398       .  A
C1038      H1042   1.082       .  S
C1045      N1051   1.348       .  A
C1045      C1050   1.382       .  A
C1045      C1046   1.413   1_556  A
C1046      C1047   1.411       .  A
C1046      H1057   1.082       .  S
C1047      C1056   1.393       .  A
C1047      C1048   1.383       .  A
C1048      N1054   1.341       .  A
C1048      C1049   1.406   1_554  A
C1049      C1050   1.402       .  A
C1049      H1058   1.082       .  S
C1050      C1053   1.384       .  A
N1051      C1052   1.362       .  A
N1051      H1061   1.044       .  S
C1052      C1053   1.396       .  A
C1053      H1059   1.082       .  S
N1054      C1055   1.357       .  A
N1054      H1062   1.046       .  S
C1055      C1056   1.401       .  A
C1056      H1060   1.082       .  S
C1063      N1069   1.342       .  A
C1063      C1068   1.385       .  A
C1063      C1064   1.403       .  A
C1064      C1065   1.402       .  A
C1064      H1075   1.082       .  S
C1065      C1074   1.377       .  A
C1065      C1066   1.385       .  A
C1066      N1072   1.342       .  A
C1066      C1067   1.403       .  A
C1067      C1068   1.401       .  A
C1067      H1076   1.082       .  S
C1068      C1071   1.377       .  A
N1069      C1070   1.355       .  A
N1069      H1079   1.046       .  S
C1070      C1071   1.395       .  A
C1071      H1077   1.082       .  S
N1072      C1073   1.355       .  A
N1072      H1080   1.044       .  S
C1073      C1074   1.395       .  A
C1074      H1078   1.082       .  S
C1081      N1087   1.347       .  A
C1081      C1086   1.384       .  A
C1081      C1082   1.404       .  A
C1082      C1083   1.404       .  A
C1082      H1093   1.082       .  S
C1083      C1092   1.376       .  A
C1083      C1084   1.383       .  A
C1084      N1090   1.352       .  A
C1084      C1085   1.410       .  A
C1085      C1086   1.411       .  A
C1085      H1094   1.082       .  S
C1086      C1089   1.384       .  A
N1087      C1088   1.355       .  A
N1087      H1097   1.045       .  S
C1088      C1089   1.399       .  A
C1089      H1095   1.082       .  S
N1090      C1091   1.360       .  A
N1090      H1098   1.046       .  S
C1091      C1092   1.397       .  A
C1092      H1096   1.082       .  S
C1099      N1105   1.345       .  A
C1099      C1104   1.383       .  A
C1099      C1100   1.409       .  A
C1100      C1101   1.406       .  A
C1100      H1111   1.082       .  S
C1101      C1110   1.387       .  A
C1101      C1102   1.383       .  A
C1102      N1108   1.344       .  A
C1102      C1103   1.408       .  A
C1103      C1104   1.405       .  A
C1103      H1112   1.082       .  S
C1104      C1107   1.385       .  A
N1105      C1106   1.359       .  A
N1105      H1115   1.044       .  S
C1106      C1107   1.397       .  A
C1107      H1113   1.082       .  S
N1108      C1109   1.359       .  A
N1108      H1116   1.044       .  S
C1109      C1110   1.398       .  A
C1110      H1114   1.082       .  S
C1117      N1123   1.346       .  A
C1117      C1122   1.385       .  A
C1117      C1118   1.405       .  A
C1118      C1119   1.405       .  A
C1118      H1129   1.082       .  S
C1119      C1128   1.378       .  A
C1119      C1120   1.386       .  A
C1120      N1126   1.340       .  A
C1120      C1121   1.398       .  A
C1121      C1122   1.397       .  A
C1121      H1130   1.083       .  S
C1122      C1125   1.369       .  A
N1123      C1124   1.356       .  A
N1123      H1133   1.046       .  S
C1124      C1125   1.392       .  A
C1125      H1131   1.082       .  S
N1126      C1127   1.352       .  A
N1126      H1134   1.048       .  S
C1127      C1128   1.395       .  A
C1128      H1132   1.082       .  S
C1135      N1141   1.348       .  A
C1135      C1140   1.384       .  A
C1135      C1136   1.405       .  A
C1136      C1137   1.406       .  A
C1136      H1147   1.082       .  S
C1137      C1146   1.379       .  A
C1137      C1138   1.384       .  A
C1138      N1144   1.351       .  A
C1138      C1139   1.409       .  A
C1139      C1140   1.409       .  A
C1139      H1148   1.082       .  S
C1140      C1143   1.382       .  A
N1141      C1142   1.356       .  A
N1141      H1151   1.043       .  S
C1142      C1143   1.400       .  A
C1143      H1149   1.082       .  S
N1144      C1145   1.359       .  A
N1144      H1152   1.042       .  S
C1145      C1146   1.397       .  A
C1146      H1150   1.082       .  S
C1153      N1159   1.343       .  A
C1153      C1158   1.383       .  A
C1153      C1154   1.407       .  A
C1154      C1155   1.404       .  A
C1154      H1165   1.082       .  S
C1155      C1164   1.385       .  A
C1155      C1156   1.383       .  A
C1156      N1162   1.343       .  A
C1156      C1157   1.407       .  A
C1157      C1158   1.404       .  A
C1157      H1166   1.082       .  S
C1158      C1161   1.385       .  A
N1159      C1160   1.358       .  A
N1159      H1169   1.043       .  S
C1160      C1161   1.397       .  A
C1161      H1167   1.082       .  S
N1162      C1163   1.359       .  A
N1162      H1170   1.044       .  S
C1163      C1164   1.397       .  A
C1164      H1168   1.082       .  S
C1171      N1177   1.343       .  A
C1171      C1176   1.384       .  A
C1171      C1172   1.408       .  A
C1172      C1173   1.406       .  A
C1172      H1183   1.082       .  S
C1173      C1182   1.386       .  A
C1173      C1174   1.384       .  A
C1174      N1180   1.342       .  A
C1174      C1175   1.405       .  A
C1175      C1176   1.403       .  A
C1175      H1184   1.082       .  S
C1176      C1179   1.382       .  A
N1177      C1178   1.357       .  A
N1177      H1187   1.050       .  S
C1178      C1179   1.395       .  A
C1179      H1185   1.082       .  S
N1180      C1181   1.356       .  A
N1180      H1188   1.046       .  S
C1181      C1182   1.398       .  A
C1182      H1186   1.082       .  S
C1189      N1195   1.350       .  A
C1189      C1194   1.384       .  A
C1189      C1190   1.408       .  A
C1190      C1191   1.409       .  A
C1190      H1201   1.082       .  S
C1191      C1200   1.382       .  A
C1191      C1192   1.385       .  A
C1192      N1198   1.344       .  A
C1192      C1193   1.401       .  A
C1193      C1194   1.401       .  A
C1193      H1202   1.082       .  S
C1194      C1197   1.373       .  A
N1195      C1196   1.358       .  A
N1195      H1205   1.045       .  S
C1196      C1197   1.394       .  A
C1197      H1203   1.082       .  S
N1198      C1199   1.353       .  A
N1198      H1206   1.043       .  S
C1199      C1200   1.399       .  A
C1200      H1204   1.082       .  S
C1207      N1213   1.341       .  A
C1207      C1212   1.385       .  A
C1207      C1208   1.400       .  A
C1208      C1209   1.400       .  A
C1208      H1219   1.082       .  S
C1209      C1218   1.375       .  A
C1209      C1210   1.385       .  A
C1210      N1216   1.347       .  A
C1210      C1211   1.406       .  A
C1211      C1212   1.406       .  A
C1211      H1220   1.082       .  S
C1212      C1215   1.381       .  A
N1213      C1214   1.354       .  A
N1213      H1223   1.046       .  S
C1214      C1215   1.397       .  A
C1215      H1221   1.082       .  S
N1216      C1217   1.356       .  A
N1216      H1224   1.043       .  S
C1217      C1218   1.392       .  A
C1218      H1222   1.082       .  S
