geometry optimzed in LAMMPS
_audit_creation_date              2020-11-30 
_audit_creation_method            'lammps2cif' 
_symmetry_space_group_name_H-M    'P1' 
_symmetry_Int_Tables_number       1 
_symmetry_cell_setting            triclinic 
loop_ 
_symmetry_equiv_pos_as_xyz 
  x,y,z 
_cell_length_a                    75.08598152882527 
_cell_length_b                    48.42005224224421 
_cell_length_c                    32.3933133464708 
_cell_angle_alpha                 89.89963529663974 
_cell_angle_beta                  90.01611951395655 
_cell_angle_gamma                 90.08927515147458 
loop_ 
_atom_site_label 
_atom_site_type_symbol 
_atom_site_fract_x 
_atom_site_fract_y 
_atom_site_fract_z 
_atom_site_charge 
N1          N  0.83929283  0.45103977  0.56852928    -0.27370
N2          N  0.84605346  0.46123009  0.60295285    -0.35230
C3          C  0.86350785  0.45519893  0.60463179     0.00970
C4          C  0.86783974  0.44010567  0.56993553     0.06990
C5          C  0.85226234  0.43813062  0.54739008    -0.06100
H6          H  0.87250479  0.46217539  0.62854058     0.07660
H7          H  0.85063969  0.42904885  0.51712780     0.08860
Cu8        Cu  0.83128013  0.48387203  0.64487552     0.44170
Cu9        Cu  0.81293541  0.45676866  0.55184574     0.41990
Cu10       Cu  0.78364257  0.48576118  0.63193644     0.43880
N11         N  0.81422073  0.50444996  0.68446387    -0.34760
N12         N  0.79668133  0.50456546  0.68095823    -0.29010
C13         C  0.78974374  0.51992915  0.71169068    -0.05110
C14         C  0.80367364  0.53005761  0.73528185     0.07100
C15         C  0.81894265  0.51983225  0.71709240     0.00900
H16         H  0.77570533  0.52409374  0.71573808     0.08550
H17         H  0.83254819  0.52340875  0.72668094     0.07630
N18         N  0.77508097  0.47149658  0.57485400    -0.36210
N19         N  0.78580080  0.46287189  0.54511639    -0.28390
C20         C  0.77616868  0.45832659  0.51079672    -0.03630
C21         C  0.75856315  0.46381570  0.51967023     0.04980
C22         C  0.75828513  0.47198525  0.56047367     0.03080
H23         H  0.78158450  0.45140705  0.48165572     0.08180
H24         H  0.74685427  0.47895522  0.57787948     0.07020
N25         N  0.97291912  0.45380783  0.47761158    -0.27370
N26         N  0.95853660  0.46942389  0.47692927    -0.35230
C27         C  0.96179870  0.49205328  0.45400257     0.00970
C28         C  0.97898644  0.49011802  0.43902085     0.06990
C29         C  0.98568940  0.46571993  0.45465851    -0.06100
H30         H  0.95226199  0.50827940  0.44785130     0.07660
H31         H  0.99882941  0.45723494  0.44966836     0.08860
Cu32       Cu  0.93516570  0.45704143  0.50482180     0.44170
Cu33       Cu  0.97390125  0.41664126  0.50847664     0.41990
Cu34       Cu  0.93315234  0.38528154  0.54555767     0.43880
N35         N  0.91299436  0.43901712  0.53121093    -0.34760
N36         N  0.91189825  0.41340474  0.54551820    -0.29010
C37         C  0.89537609  0.40946839  0.56082736    -0.05110
C38         C  0.88584217  0.43366774  0.55562980     0.07100
C39         C  0.89738574  0.45189949  0.53702098     0.00900
H40         H  0.89079178  0.39064375  0.57544641     0.08550
H41         H  0.89474484  0.47318983  0.52882614     0.07630
N42         N  0.95770151  0.36464056  0.54381343    -0.36210
N43         N  0.97249983  0.37722996  0.53219750    -0.28390
C44         C  0.98617848  0.35954953  0.53436773    -0.03630
C45         C  0.97983536  0.33400056  0.54662913     0.04980
C46         C  0.96168655  0.33815363  0.55314455     0.03080
H47         H  0.99976894  0.36513541  0.52725065     0.08180
H48         H  0.95205091  0.32289523  0.56308173     0.07020
N49         N  0.15862384  0.61429863  0.21897218    -0.27370
N50         N  0.15226071  0.59953457  0.18801678    -0.35230
C51         C  0.13451746  0.60277612  0.18618656     0.00970
C52         C  0.12952573  0.62094213  0.21684324     0.06990
C53         C  0.14508396  0.62776780  0.23730721    -0.06100
H54         H  0.12585305  0.59231300  0.16456249     0.07660
H55         H  0.14635585  0.64043616  0.26463424     0.08860
Cu56       Cu  0.16800147  0.57592148  0.14942655     0.44170
Cu57       Cu  0.18527070  0.61315504  0.23572306     0.41990
Cu58       Cu  0.21556572  0.58105119  0.16042611     0.43880
N59         N  0.18586397  0.55727651  0.10971935    -0.34760
N60         N  0.20335716  0.55965863  0.11259974    -0.29010
C61         C  0.21094643  0.54580596  0.08111944    -0.05110
C62         C  0.19750327  0.53415897  0.05755743     0.07100
C63         C  0.18182430  0.54184983  0.07664015     0.00900
H64         H  0.22513785  0.54422322  0.07595884     0.08550
H65         H  0.16840674  0.53692365  0.06696111     0.07630
N66         N  0.22355000  0.59888058  0.21573016    -0.36210
N67         N  0.21251938  0.60877015  0.24394034    -0.28390
C68         C  0.22189854  0.61574731  0.27774522    -0.03630
C69         C  0.23965398  0.61056815  0.27002548     0.04980
C70         C  0.24027921  0.60003384  0.23047579     0.03080
H71         H  0.21621760  0.62417884  0.30569596     0.08180
H72         H  0.25193271  0.59268817  0.21424896     0.07020
N73         N  0.02440547  0.60721602  0.30738317    -0.27370
N74         N  0.03780543  0.59000465  0.30210499    -0.35230
C75         C  0.03409808  0.56608702  0.32154465     0.00970
C76         C  0.01764398  0.56877349  0.34037506     0.06990
C77         C  0.01181697  0.59498383  0.33040997    -0.06100
H78         H  0.04299208  0.54855925  0.32329348     0.07660
H79         H  0.99951578  0.60467686  0.33990402     0.08860
Cu80       Cu  0.06079063  0.60242207  0.27239364     0.44170
Cu81       Cu  0.02468216  0.64705717  0.28548405     0.41990
Cu82       Cu  0.06470772  0.67694381  0.24307540     0.43880
N83         N  0.08342232  0.62121194  0.24929265    -0.34760
N84         N  0.08538701  0.64781130  0.24056452    -0.29010
C85         C  0.10238181  0.65215030  0.22858802    -0.05110
C86         C  0.11123483  0.62709752  0.22948807     0.07100
C87         C  0.09884108  0.60803129  0.24243355     0.00900
H88         H  0.10773617  0.67188033  0.21886418     0.08550
H89         H  0.10089710  0.58610075  0.24689541     0.07630
N90         N  0.04073511  0.69885427  0.24914507    -0.36210
N91         N  0.02634757  0.68716479  0.26498941    -0.28390
C92         C  0.01325550  0.70583574  0.26765518    -0.03630
C93         C  0.01942826  0.73060892  0.25237129     0.04980
C94         C  0.03698064  0.72562125  0.24094060     0.03080
H95         H  0.00030170  0.70185784  0.28102606     0.08180
H96         H  0.04646913  0.74055535  0.22929661     0.07020
N97         N  0.15756098  0.11275097  0.59046555    -0.27370
N98         N  0.15121909  0.09745608  0.62093571    -0.35230
C99         C  0.13356310  0.10136926  0.62373251     0.00970
C100        C  0.12862126  0.12052604  0.59427690     0.06990
C101        C  0.14411727  0.12726692  0.57350678    -0.06100
H102        H  0.12489221  0.09058822  0.64503877     0.07660
H103        H  0.14535771  0.14041151  0.54661144     0.08860
Cu104      Cu  0.16681589  0.07205030  0.65746585     0.44170
Cu105      Cu  0.18390100  0.11055233  0.57179876     0.41990
Cu106      Cu  0.21425181  0.07559128  0.64408863     0.43880
N107        N  0.18475429  0.05206763  0.69570113    -0.34760
N108        N  0.20224093  0.05400515  0.69202793    -0.29010
C109        C  0.20996442  0.03960317  0.72284541    -0.03990
C110        C  0.19661922  0.02802218  0.74679774     0.07100
C111        C  0.18084933  0.03633138  0.72863370     0.00900
H112        H  0.22418043  0.03760547  0.72729156     0.08550
H113        H  0.16747486  0.03169479  0.73894175     0.07630
N114        N  0.22197466  0.09376256  0.58879993    -0.36210
N115        N  0.21086765  0.10469300  0.56156765    -0.28390
C116        C  0.22002674  0.11183917  0.52749471    -0.03630
C117        C  0.23773159  0.10566737  0.53407642     0.04980
C118        C  0.23855627  0.09439006  0.57318652     0.03080
H119        H  0.21425813  0.12122880  0.50027949     0.08180
H120        H  0.25023951  0.08636398  0.58861022     0.07020
N121        N  0.02155209  0.10739355  0.51491861    -0.27370
N122        N  0.03540262  0.09086734  0.51882627    -0.35230
C123        C  0.03184962  0.06671748  0.50017207     0.00970
C124        C  0.01486094  0.06816905  0.48380575     0.06990
C125        C  0.00878561  0.09434371  0.49337090    -0.06100
H126        H  0.04122078  0.04988749  0.49713441     0.07660
H127        H  0.99619729  0.10343523  0.48452512     0.08860
Cu128      Cu  0.05889125  0.10385942  0.54514356     0.44170
Cu129      Cu  0.02166462  0.14742925  0.53677561     0.41990
Cu130      Cu  0.06439892  0.17807204  0.56526701     0.43880
N131        N  0.08222816  0.12197770  0.56457199    -0.34760
N132        N  0.08488052  0.14879284  0.56976732    -0.29010
C133        C  0.10209293  0.15278842  0.58030224    -0.05110
C134        C  0.11032577  0.12722456  0.58225543     0.07100
C135        C  0.09736458  0.10828424  0.57234798     0.00900
H136        H  0.10799851  0.17264474  0.58727195     0.08550
H137        H  0.09884876  0.08608188  0.57049335     0.07630
N138        N  0.04024863  0.19981804  0.56380192    -0.36210
N139        N  0.02478491  0.18792137  0.55543311    -0.28390
C140        C  0.01176939  0.20688285  0.55705547    -0.03630
C141        C  0.01926963  0.23206698  0.56670197     0.04980
C142        C  0.03739544  0.22698026  0.57029538     0.03080
H143        H  0.99797828  0.20292204  0.54940789     0.08180
H144        H  0.04775257  0.24201999  0.57621096     0.07020
N145        N  0.84204079  0.95677812  0.24314756    -0.27370
N146        N  0.84887538  0.96812600  0.20956799    -0.35230
C147        C  0.86621634  0.96148904  0.20705660     0.00970
C148        C  0.87039518  0.94478789  0.24025602     0.06990
C149        C  0.85485517  0.94251011  0.26288035    -0.06100
H150        H  0.87526058  0.96911620  0.18366504     0.07660
H151        H  0.85317520  0.93228088  0.29234742     0.08860
Cu152      Cu  0.83438335  0.99286322  0.16967226     0.44170
Cu153      Cu  0.81581501  0.96271140  0.26078263     0.41990
Cu154      Cu  0.78676866  0.99422317  0.18254161     0.43880
N155        N  0.81731091  0.01429695  0.13101199    -0.34760
N156        N  0.79976989  0.01405050  0.13441317    -0.29010
C157        C  0.79272540  0.02957495  0.10394379    -0.05110
C158        C  0.80657755  0.04019826  0.08061176     0.07100
C159        C  0.82193132  0.03012085  0.09868852     0.00900
H160        H  0.77864706  0.03334099  0.09973086     0.08550
H161        H  0.83550357  0.03387662  0.08899192     0.07630
N162        N  0.77810987  0.97893236  0.23890891    -0.36210
N163        N  0.78876251  0.96935856  0.26817257    -0.28390
C164        C  0.77910289  0.96424822  0.30229045    -0.03630
C165        C  0.76155015  0.97038321  0.29371478     0.04980
C166        C  0.76133244  0.97950513  0.25333364     0.03080
H167        H  0.78445286  0.95645432  0.33104533     0.08180
H168        H  0.74996098  0.98710748  0.23626104     0.07020
N169        N  0.97367170  0.95023141  0.34523785    -0.27370
N170        N  0.96036090  0.96760341  0.33977848    -0.35230
C171        C  0.96421241  0.99158743  0.35857846     0.00970
C172        C  0.98086516  0.98917059  0.37653106     0.06990
C173        C  0.98639102  0.96257005  0.36783447    -0.06100
H174        H  0.95535741  0.00917045  0.35995802     0.07660
H175        H  0.99871719  0.95289522  0.37726828     0.08860
Cu176      Cu  0.93756119  0.95662458  0.30850342     0.44170
Cu177      Cu  0.97349766  0.91086070  0.32106679     0.41990
Cu178      Cu  0.93500719  0.88718890  0.26229323     0.43880
N179        N  0.91541884  0.94081836  0.27932257    -0.34760
N180        N  0.91409635  0.91588763  0.26281257    -0.29010
C181        C  0.89759807  0.91305864  0.24681389    -0.05110
C182        C  0.88834206  0.93731273  0.25383189     0.07100
C183        C  0.90001115  0.95439884  0.27425384     0.00900
H184        H  0.89280746  0.89491398  0.23079471     0.08550
H185        H  0.89755772  0.97533182  0.28444692     0.07630
N186        N  0.95849800  0.86424000  0.26942536    -0.36210
N187        N  0.97213146  0.87317666  0.29162097    -0.28390
C188        C  0.98492677  0.85387795  0.29222453    -0.03630
C189        C  0.97924292  0.83158999  0.26930528     0.04980
C190        C  0.96244731  0.83880717  0.25500275     0.03080
H191        H  0.99738663  0.85577831  0.30874712     0.08180
H192        H  0.95356248  0.82617271  0.23671017     0.07020
N193        N  0.83899614  0.13901534  0.87550511    -0.27370
N194        N  0.84401600  0.13185986  0.91309007    -0.35230
C195        C  0.86125366  0.13774850  0.91823635     0.00970
C196        C  0.86766817  0.14935849  0.88234723     0.06990
C197        C  0.85319829  0.14997901  0.85558314    -0.06100
H198        H  0.86887400  0.13223239  0.94537319     0.07660
H199        H  0.85333142  0.15584895  0.82335096     0.08860
Cu200      Cu  0.82876935  0.11041373  0.95470742     0.44170
Cu201      Cu  0.81333371  0.12955299  0.85488780     0.41990
Cu202      Cu  0.78408748  0.09607556  0.93628508     0.43880
N203        N  0.81402664  0.08659234  0.99438075    -0.34760
N204        N  0.79696811  0.08133237  0.98868997    -0.29010
C205        C  0.79129448  0.06442906  0.01914787    -0.05110
C206        C  0.80568246  0.05876940  0.04470622     0.07100
C207        C  0.81981992  0.07317102  0.02799246     0.00900
H208        H  0.77796462  0.05608384  0.02158119     0.08550
H209        H  0.83341972  0.07355850  0.03898599     0.07630
N210        N  0.77616926  0.10824396  0.87740059    -0.36210
N211        N  0.78660378  0.11820171  0.84782572    -0.28390
C212        C  0.77698406  0.12054893  0.81287277    -0.03630
C213        C  0.75972302  0.11230449  0.82116760     0.04980
C214        C  0.75964798  0.10480295  0.86224035     0.03080
H215        H  0.78213341  0.12801917  0.78372609     0.08180
H216        H  0.74855184  0.09640289  0.87949749     0.07020
N217        N  0.97798060  0.12394017  0.90576791    -0.27370
N218        N  0.96305919  0.11213183  0.91782037    -0.35230
C219        C  0.96689929  0.08930409  0.93967040     0.00970
C220        C  0.98525329  0.08692077  0.94183083     0.06990
C221        C  0.99185146  0.10910174  0.91951384    -0.06100
H222        H  0.95709253  0.07545695  0.95281617     0.07660
H223        H  0.00564795  0.11388381  0.91310507     0.08860
Cu224      Cu  0.93888746  0.12874464  0.90178130     0.44170
Cu225      Cu  0.97770305  0.16002600  0.87245062     0.41990
Cu226      Cu  0.93550897  0.19505515  0.84543570     0.43880
N227        N  0.91561043  0.14637171  0.88147157    -0.34760
N228        N  0.91366295  0.16981151  0.86085655    -0.29010
C229        C  0.89601479  0.17423256  0.85521652    -0.05110
C230        C  0.88675658  0.15255419  0.87350143     0.07100
C231        C  0.89963605  0.13553202  0.88965800     0.00900
H232        H  0.89036942  0.19251507  0.84113811     0.08550
H233        H  0.89755274  0.11690512  0.90756388     0.07630
N234        N  0.96102563  0.21252053  0.83855876    -0.36210
N235        N  0.97581276  0.19910374  0.84816795    -0.28390
C236        C  0.98991415  0.21558455  0.84227503    -0.03630
C237        C  0.98397502  0.24088239  0.82869886     0.04980
C238        C  0.96556908  0.23821830  0.82597800     0.03080
H239        H  0.00356173  0.20955869  0.84795606     0.08180
H240        H  0.95619838  0.25396552  0.81654424     0.07020
N241        N  0.17174662  0.93394344  0.96203500    -0.27370
N242        N  0.16425300  0.94044733  0.92646840    -0.35230
C243        C  0.14701271  0.93319957  0.92746292     0.00970
C244        C  0.14349306  0.92109605  0.96521078     0.06990
C245        C  0.15942131  0.92217948  0.98667257    -0.06100
H246        H  0.13743230  0.93826195  0.90368466     0.07660
H247        H  0.16151340  0.91698538  0.01880278     0.08860
Cu248      Cu  0.17710831  0.96227795  0.88056999     0.44170
Cu249      Cu  0.19766751  0.94536957  0.97568085     0.41990
Cu250      Cu  0.22366267  0.97797239  0.89124893     0.43880
N251        N  0.19133144  0.98489751  0.83779369    -0.34760
N252        N  0.20853266  0.99039581  0.84063149    -0.29010
C253        C  0.21335219  0.00616783  0.80811583    -0.05110
C254        C  0.19836419  0.01083069  0.78408869     0.07100
C255        C  0.18470812  0.99703539  0.80386905     0.00900
H256        H  0.22659004  0.01435594  0.80312325     0.08550
H257        H  0.17086855  0.99618188  0.79469856     0.07630
N258        N  0.23360329  0.96836025  0.94958493    -0.36210
N259        N  0.22388324  0.95838029  0.98032460    -0.28390
C260        C  0.23379627  0.95780344  0.01484885    -0.03630
C261        C  0.25061086  0.96728385  0.00525943     0.04980
C262        C  0.25012555  0.97367453  0.96368324     0.03080
H263        H  0.22909558  0.95090997  0.04471166     0.08180
H264        H  0.26072238  0.98272633  0.94549884     0.07020
N265        N  0.03648186  0.95535315  0.02569775    -0.27370
N266        N  0.05047724  0.96883970  0.01154431    -0.35230
C267        C  0.04534781  0.99374797  0.99778212     0.00970
C268        C  0.02712819  0.99587095  0.00299963     0.06990
C269        C  0.02196693  0.97128806  0.02139787    -0.06100
H270        H  0.05404029  0.00848533  0.98271115     0.07660
H271        H  0.00858400  0.96485384  0.02915311     0.08860
Cu272      Cu  0.07499180  0.95053139  0.00599941     0.44170
Cu273      Cu  0.03764428  0.91405202  0.04101849     0.41990
Cu274      Cu  0.07701619  0.87517289  0.00797348     0.43880
N275        N  0.09792310  0.92813383  0.99800117    -0.34760
N276        N  0.09910434  0.90086542  0.99834637    -0.29010
C277        C  0.11602622  0.89380751  0.98909691    -0.05110
C278        C  0.12569043  0.91786157  0.98287144     0.07100
C279        C  0.11378768  0.93906570  0.98843358     0.00900
H280        H  0.12067929  0.87284268  0.98503453     0.08550
H281        H  0.11626043  0.96090217  0.98393902     0.07630
N282        N  0.05211587  0.85742443  0.02049132    -0.36210
N283        N  0.03845301  0.87170037  0.03480904    -0.28390
C284        C  0.02413833  0.85520520  0.03745899    -0.03630
C285        C  0.02873937  0.82910325  0.02401839     0.04980
C286        C  0.04664153  0.83132284  0.01327630     0.03080
H287        H  0.01101338  0.86224485  0.04622168     0.08180
H288        H  0.05479908  0.81567550  0.99887934     0.07020
N289        N  0.17181138  0.44157046  0.84168290    -0.27370
N290        N  0.16420579  0.44877116  0.87678253    -0.35230
C291        C  0.14689022  0.44195493  0.87554661     0.00970
C292        C  0.14345935  0.42937458  0.83817428     0.06990
C293        C  0.15950148  0.42969996  0.81716141    -0.06100
H294        H  0.13726958  0.44733041  0.89904166     0.07660
H295        H  0.16173770  0.42373789  0.78541646     0.08860
Cu296      Cu  0.17721197  0.47028801  0.92270561     0.44170
Cu297      Cu  0.19795385  0.45200469  0.82840092     0.41990
Cu298      Cu  0.22403959  0.48434468  0.91267902     0.43880
N299        N  0.19171665  0.49213109  0.96579378    -0.34760
N300        N  0.20898850  0.49710771  0.96312132    -0.29010
C301        C  0.21398813  0.51247423  0.99585033    -0.05110
C302        C  0.19905136  0.51737999  0.01989039     0.07100
C303        C  0.18523535  0.50416233  0.99987160     0.00900
H304        H  0.22733706  0.52013804  0.00107215     0.08550
H305        H  0.17138673  0.50361296  0.00899981     0.07630
N306        N  0.23403870  0.47429474  0.85465139    -0.36210
N307        N  0.22431468  0.46438705  0.82390819    -0.28390
C308        C  0.23431820  0.46347428  0.78955000    -0.03630
C309        C  0.25119160  0.47264645  0.79928144     0.04980
C310        C  0.25064163  0.47921705  0.84075117     0.03080
H311        H  0.22963577  0.45658790  0.75969824     0.08180
H312        H  0.26125819  0.48814554  0.85897484     0.07020
N313        N  0.03548899  0.45775481  0.78113908    -0.27370
N314        N  0.04964257  0.47290342  0.78951929    -0.35230
C315        C  0.04439355  0.49843543  0.80012352     0.00970
C316        C  0.02600276  0.49919729  0.79849209     0.06990
C317        C  0.02077753  0.47301371  0.78670503    -0.06100
H318        H  0.05316787  0.51446945  0.81146468     0.07660
H319        H  0.00730589  0.46516177  0.78488953     0.08860
Cu320      Cu  0.07463521  0.45578821  0.79410258     0.44170
Cu321      Cu  0.03705395  0.41600550  0.77035912     0.41990
Cu322      Cu  0.07813395  0.37990362  0.79580205     0.43880
N323        N  0.09787760  0.43425518  0.80398314    -0.34760
N324        N  0.09955352  0.40703351  0.80459948    -0.29010
C325        C  0.11653428  0.40081563  0.81460680    -0.05110
C326        C  0.12572511  0.42531550  0.82048169     0.07100
C327        C  0.11348903  0.44594935  0.81386348     0.00900
H328        H  0.12153302  0.38010597  0.81943653     0.08550
H329        H  0.11557267  0.46793161  0.81765460     0.07630
N330        N  0.05363846  0.36024289  0.78578094    -0.36210
N331        N  0.03914645  0.37377269  0.77446881    -0.28390
C332        C  0.02531159  0.35627043  0.77287837    -0.03630
C333        C  0.03117814  0.33028350  0.78370529     0.04980
C334        C  0.04921726  0.33355321  0.79210783     0.03080
H335        H  0.01167609  0.36250802  0.76756566     0.08180
H336        H  0.05823128  0.31797772  0.80379996     0.07020
N337        N  0.83672494  0.63377301  0.93447436    -0.27370
N338        N  0.84206719  0.62462124  0.89817151    -0.35230
C339        C  0.85935650  0.63032328  0.89318040     0.00970
C340        C  0.86539910  0.64394016  0.92781030     0.06990
C341        C  0.85069581  0.64590967  0.95362360    -0.06100
H342        H  0.86724443  0.62344987  0.86721506     0.07660
H343        H  0.85051817  0.65349089  0.98501110     0.08860
Cu344      Cu  0.82688726  0.60132220  0.85859684     0.44170
Cu345      Cu  0.81107730  0.62508904  0.95544889     0.41990
Cu346      Cu  0.78174275  0.58858825  0.87768383     0.43880
N347        N  0.81173054  0.57696706  0.82043894    -0.34760
N348        N  0.79458648  0.57239012  0.82620057    -0.29010
C349        C  0.78869069  0.55528047  0.79627639    -0.05110
C350        C  0.80300981  0.54877766  0.77099399     0.07100
C351        C  0.81733536  0.56290163  0.78733023     0.00900
H352        H  0.77521762  0.54750640  0.79389163     0.08550
H353        H  0.83091925  0.56283108  0.77624186     0.07630
N354        N  0.77405263  0.60224147  0.93600130    -0.36210
N355        N  0.78459664  0.61335125  0.96437745    -0.28390
C356        C  0.77525722  0.61653971  0.99954243    -0.03630
C357        C  0.75804260  0.60760762  0.99263779     0.04980
C358        C  0.75769783  0.59886940  0.95214061     0.03080
H359        H  0.78055142  0.62511831  0.02782263     0.08180
H360        H  0.74652923  0.58978334  0.93597330     0.07020
N361        N  0.97538855  0.62474390  0.89790104    -0.27370
N362        N  0.96113323  0.60888900  0.89693034    -0.35230
C363        C  0.96551648  0.58410292  0.88146528     0.00970
C364        C  0.98354379  0.58446984  0.87261027     0.06990
C365        C  0.98935674  0.61065775  0.88302071    -0.06100
H366        H  0.95626015  0.56726415  0.87665043     0.07660
H367        H  0.00275021  0.61873795  0.88045402     0.08860
Cu368      Cu  0.93696285  0.62344883  0.91672281     0.44170
Cu369      Cu  0.97426732  0.66407060  0.92131663     0.41990
Cu370      Cu  0.93243051  0.69256619  0.96377522     0.43880
N371        N  0.91331842  0.64149331  0.93332821    -0.34760
N372        N  0.91096720  0.66598924  0.95058002    -0.29010
C373        C  0.89322964  0.67052608  0.95391931    -0.05110
C374        C  0.88434797  0.64785925  0.93751327     0.07100
C375        C  0.89752099  0.63012204  0.92486980     0.00900
H376        H  0.88730252  0.68947205  0.96500344     0.08550
H377        H  0.89578538  0.61060428  0.90910216     0.07630
N378        N  0.95747340  0.71206964  0.96730071    -0.36210
N379        N  0.97207739  0.70132316  0.95109900    -0.28390
C380        C  0.98592894  0.71810240  0.95810179    -0.03630
C381        C  0.98005748  0.74083581  0.97963107     0.04980
C382        C  0.96188291  0.73632435  0.98523981     0.03080
H383        H  0.99940518  0.71395299  0.94810888     0.08180
H384        H  0.95262539  0.74942401  0.00161264     0.07020
N385        N  0.34653186  0.46836962  0.71577758    -0.27370
N386        N  0.35290716  0.48227243  0.68389080    -0.35230
C387        C  0.37051595  0.47778121  0.68105983     0.00970
C388        C  0.37538222  0.45969538  0.71205651     0.06990
C389        C  0.35991228  0.45429500  0.73379362    -0.06100
H390        H  0.37921555  0.48753041  0.65873760     0.07660
H391        H  0.35864678  0.44225421  0.76181039     0.08860
Cu392      Cu  0.33738891  0.50683581  0.64590789     0.44170
Cu393      Cu  0.32017362  0.47144622  0.73426345     0.41990
Cu394      Cu  0.28988560  0.50460896  0.65983782     0.43880
N395        N  0.31956017  0.52678863  0.60735497    -0.34760
N396        N  0.30205886  0.52536146  0.61120982    -0.29010
C397        C  0.29446105  0.53985435  0.58029850    -0.05110
C398        C  0.30790750  0.55097559  0.55613705     0.07100
C399        C  0.32359716  0.54228367  0.57425615     0.00900
H400        H  0.28026634  0.54234261  0.57604562     0.08550
H401        H  0.33701004  0.54660272  0.56391351     0.07630
N402        N  0.28204803  0.48741709  0.71581080    -0.36210
N403        N  0.29311473  0.47717114  0.74372482    -0.28390
C404        C  0.28386146  0.47054595  0.77790803    -0.03630
C405        C  0.26613978  0.47635087  0.77074742     0.04980
C406        C  0.26541029  0.48686169  0.73113548     0.03080
H407        H  0.28958200  0.46175583  0.80561956     0.08180
H408        H  0.25374260  0.49443106  0.71514197     0.07020
N409        N  0.48164510  0.47236937  0.79851419    -0.27370
N410        N  0.46765526  0.48870462  0.79568570    -0.35230
C411        C  0.47121640  0.51265245  0.81493261     0.00970
C412        C  0.48841187  0.51140261  0.83026675     0.06990
C413        C  0.49455124  0.48542294  0.81959437    -0.06100
H414        H  0.46183814  0.52943763  0.81839290     0.07660
H415        H  0.50715279  0.47621300  0.82802028     0.08860
Cu416      Cu  0.44421082  0.47599037  0.76860313     0.44170
Cu417      Cu  0.48161994  0.43244506  0.77618751     0.41990
Cu418      Cu  0.44034395  0.40324401  0.73620604     0.43880
N419        N  0.42138994  0.45828740  0.74510251    -0.34760
N420        N  0.41944492  0.43200145  0.73473020    -0.29010
C421        C  0.40248615  0.42805430  0.72216549    -0.05110
C422        C  0.39363849  0.45308603  0.72453142     0.07100
C423        C  0.40600345  0.47171093  0.73889231     0.00900
H424        H  0.39714974  0.40864660  0.71113432     0.08550
H425        H  0.40397391  0.49350906  0.74456898     0.07630
N426        N  0.46434019  0.38119841  0.74070476    -0.36210
N427        N  0.47917660  0.39235164  0.75520546    -0.28390
C428        C  0.49201297  0.37309583  0.75668618    -0.03630
C429        C  0.48509972  0.34856359  0.74231522     0.04980
C430        C  0.46749401  0.35431553  0.73240301     0.03080
H431        H  0.50521367  0.37643130  0.76909810     0.08180
H432        H  0.45754180  0.33976161  0.72187372     0.07020
N433        N  0.66277068  0.62377634  0.07070127    -0.27370
N434        N  0.65579729  0.61483384  0.10568932    -0.35230
C435        C  0.63852849  0.62203989  0.10716051     0.00970
C436        C  0.63452441  0.63651900  0.07160179     0.06990
C437        C  0.65009905  0.63692528  0.04884406    -0.06100
H438        H  0.62938601  0.61609287  0.13141232     0.07660
H439        H  0.65189833  0.64514660  0.01804842     0.08860
Cu440      Cu  0.66996104  0.59165479  0.14806046     0.44170
Cu441      Cu  0.68900608  0.61608712  0.05466167     0.41990
Cu442      Cu  0.71750357  0.58363813  0.13369698     0.43880
N443        N  0.68611183  0.56921688  0.18739646    -0.34760
N444        N  0.70354723  0.56657350  0.18327978    -0.29010
C445        C  0.70972464  0.55071921  0.21444265    -0.05110
C446        C  0.69541035  0.54300853  0.23896196     0.07100
C447        C  0.68071410  0.55509881  0.22081748     0.00900
H448        H  0.72351218  0.54487752  0.21851075     0.08550
H449        H  0.66703868  0.55379506  0.23111023     0.07630
N450        N  0.72657445  0.59861573  0.07702550    -0.36210
N451        N  0.71601234  0.60860297  0.04786474    -0.28390
C452        C  0.72567037  0.61355326  0.01372169    -0.03630
C453        C  0.74317316  0.60695926  0.02196983     0.04980
C454        C  0.74335235  0.59765454  0.06235257     0.03080
H455        H  0.72032542  0.62143455  0.98501284     0.08180
H456        H  0.75466210  0.58958165  0.07915518     0.07020
N457        N  0.52940357  0.62515360  0.97816266    -0.27370
N458        N  0.54379192  0.60959550  0.97726741    -0.35230
C459        C  0.54034587  0.58669367  0.95526693     0.00970
C460        C  0.52284102  0.58786676  0.94176449     0.06990
C461        C  0.51641200  0.61278852  0.95646781    -0.06100
H462        H  0.54996095  0.57061730  0.94898885     0.07660
H463        H  0.50348224  0.62179915  0.95070509     0.08860
Cu464      Cu  0.56740261  0.62208895  0.00395128     0.44170
Cu465      Cu  0.52882902  0.66305688  0.00708063     0.41990
Cu466      Cu  0.56954666  0.69256763  0.04832548     0.43880
N467        N  0.58962570  0.63920025  0.03139740    -0.34760
N468        N  0.59067386  0.66425569  0.04763318    -0.29010
C469        C  0.60709847  0.66755921  0.06380460    -0.05110
C470        C  0.61666071  0.64358706  0.05695782     0.07100
C471        C  0.60520465  0.62609427  0.03661511     0.00900
H472        H  0.61161584  0.68581454  0.07996704     0.08550
H473        H  0.60784476  0.60507949  0.02706713     0.07630
N474        N  0.54539394  0.71416315  0.04461396    -0.36210
N475        N  0.53062872  0.70243329  0.03092154    -0.28390
C476        C  0.51733068  0.72086252  0.03148261    -0.03630
C477        C  0.52393750  0.74592312  0.04501249     0.04980
C478        C  0.54177812  0.74077657  0.05385094     0.03080
H479        H  0.50384506  0.71627483  0.02203285     0.08180
H480        H  0.55149448  0.75547895  0.06508156     0.07020
N481        N  0.66356403  0.12287811  0.74394146    -0.27370
N482        N  0.65662861  0.11088314  0.71104416    -0.35230
C483        C  0.63922416  0.11709745  0.70869934     0.00970
C484        C  0.63504957  0.13423124  0.74128041     0.06990
C485        C  0.65070756  0.13723531  0.76339973    -0.06100
H486        H  0.63016569  0.10905673  0.68567557     0.07660
H487        H  0.65245903  0.14810252  0.79227392     0.08860
Cu488      Cu  0.67113111  0.08618969  0.67148689     0.44170
Cu489      Cu  0.69009469  0.11753219  0.76042991     0.41990
Cu490      Cu  0.71884965  0.08339745  0.68328719     0.43880
N491        N  0.68773967  0.06483137  0.63203517    -0.34760
N492        N  0.70528882  0.06419940  0.63512787    -0.29010
C493        C  0.71188244  0.04919730  0.60358830    -0.05110
C494        C  0.69771755  0.03997814  0.57983519     0.07100
C495        C  0.68267291  0.05026024  0.59886039     0.00900
H496        H  0.72587830  0.04520999  0.59849481     0.08550
H497        H  0.66900089  0.04768666  0.58907382     0.07630
N498        N  0.72783713  0.10038958  0.73853502    -0.36210
N499        N  0.71730358  0.11098876  0.76720907    -0.28390
C500        C  0.72711317  0.11712591  0.80070979    -0.03630
C501        C  0.74465464  0.11069091  0.79241422     0.04980
C502        C  0.74469200  0.10022134  0.75276437     0.03080
H503        H  0.72184855  0.12565950  0.82902870     0.08180
H504        H  0.75597548  0.09185951  0.73624061     0.07020
N505        N  0.52974443  0.12833866  0.83491070    -0.27370
N506        N  0.54326982  0.11115161  0.83169111    -0.35230
C507        C  0.53933417  0.08763668  0.85180947     0.00970
C508        C  0.52238413  0.09008566  0.86830807     0.06990
C509        C  0.51680415  0.11636234  0.85733341    -0.06100
H510        H  0.54826200  0.07022017  0.85475520     0.07660
H511        H  0.50450592  0.12640135  0.86595248     0.08860
Cu512      Cu  0.56657414  0.12219091  0.80229916     0.44170
Cu513      Cu  0.53022052  0.16725570  0.80891338     0.41990
Cu514      Cu  0.57037705  0.19258970  0.75820464     0.43880
N515        N  0.58938918  0.13840070  0.77628529    -0.34760
N516        N  0.59119352  0.16362474  0.76088482    -0.29010
C517        C  0.60804999  0.16650534  0.74700157    -0.05110
C518        C  0.61705605  0.14202046  0.75428606     0.07100
C519        C  0.60482570  0.12470420  0.77250221     0.00900
H520        H  0.61322106  0.18477031  0.73185850     0.08550
H521        H  0.60690299  0.10348085  0.78188682     0.07630
N522        N  0.54644484  0.21500204  0.76125780    -0.36210
N523        N  0.53210035  0.20508993  0.77980137    -0.28390
C524        C  0.51894371  0.22371095  0.77769344    -0.03630
C525        C  0.52501916  0.24672296  0.75671839     0.04980
C526        C  0.54263447  0.24055858  0.74686089     0.03080
H527        H  0.50587040  0.22078355  0.79103169     0.08180
H528        H  0.55211029  0.25391912  0.73150776     0.07020
N529        N  0.34576012  0.96484559  0.08951774    -0.27370
N530        N  0.35204166  0.97946259  0.12071203    -0.35230
C531        C  0.36974898  0.97593657  0.12304303     0.00970
C532        C  0.37478150  0.95772507  0.09247279     0.06990
C533        C  0.35929567  0.95115583  0.07156865    -0.06100
H534        H  0.37837444  0.98632631  0.14482966     0.07660
H535        H  0.35810117  0.93866949  0.04403659     0.08860
Cu536      Cu  0.33625772  0.00349519  0.15862299     0.44170
Cu537      Cu  0.31934002  0.96685018  0.07140989     0.41990
Cu538      Cu  0.28877808  0.00013623  0.14499423     0.43880
N539        N  0.31830537  0.02275090  0.19744861    -0.34760
N540        N  0.30081317  0.02099296  0.19367208    -0.29010
C541        C  0.29314369  0.03517160  0.22473678    -0.05110
C542        C  0.30653766  0.04640160  0.24892575     0.07100
C543        C  0.32226606  0.03810722  0.23065658     0.00900
H544        H  0.27893598  0.03735310  0.22910278     0.08550
H545        H  0.33565978  0.04262750  0.24093474     0.07630
N546        N  0.28114635  0.98268677  0.08907622    -0.36210
N547        N  0.29231860  0.97236936  0.06151640    -0.28390
C548        C  0.28320116  0.96555992  0.02725119    -0.03630
C549        C  0.26545134  0.97130818  0.03398052     0.04980
C550        C  0.26456215  0.98197731  0.07343103     0.03080
H551        H  0.28903389  0.95666816  0.99979181     0.08180
H552        H  0.25282016  0.98952352  0.08909802     0.07020
N553        N  0.48120551  0.97226087  0.00851612    -0.27370
N554        N  0.46733955  0.98875355  0.01221163    -0.35230
C555        C  0.47090892  0.01287210  0.99331388     0.00970
C556        C  0.48797191  0.01155038  0.97715939     0.06990
C557        C  0.49398625  0.98530642  0.98699040    -0.06100
H558        H  0.46162317  0.02985763  0.99072953     0.07660
H559        H  0.50643232  0.97593119  0.97785892     0.08860
Cu560      Cu  0.44395081  0.97585246  0.03943891     0.44170
Cu561      Cu  0.48128912  0.93227160  0.03080124     0.41990
Cu562      Cu  0.43917879  0.90154389  0.06209298     0.43880
N563        N  0.42094464  0.95739451  0.06068210    -0.34760
N564        N  0.41862400  0.93057682  0.06684214    -0.29010
C565        C  0.40157744  0.92624108  0.07837447    -0.05110
C566        C  0.39307687  0.95156916  0.07995183     0.07100
C567        C  0.40571797  0.97076310  0.06881571     0.00900
H568        H  0.39595964  0.90630227  0.08615155     0.08550
H569        H  0.40394405  0.99288988  0.06632007     0.07630
N570        N  0.46328379  0.87985676  0.05971504    -0.36210
N571        N  0.47860135  0.89181307  0.05017592    -0.28390
C572        C  0.49168905  0.87295690  0.05137450    -0.03630
C573        C  0.48436611  0.84780524  0.06196813     0.04980
C574        C  0.46628249  0.85276050  0.06659533     0.03080
H575        H  0.50538934  0.87696758  0.04294696     0.08180
H576        H  0.45604961  0.83769646  0.07351716     0.07020
N577        N  0.33373578  0.64675567  0.34247984    -0.27370
N578        N  0.34096714  0.63971525  0.37812120    -0.35230
C579        C  0.35824884  0.64667849  0.37788092     0.00970
C580        C  0.36213593  0.65911061  0.34055014     0.06990
C581        C  0.34630849  0.65864624  0.31857405    -0.06100
H582        H  0.36762924  0.64115616  0.40186277     0.07660
H583        H  0.34446860  0.66420047  0.28649630     0.08860
Cu584      Cu  0.32789169  0.61742706  0.42325296     0.44170
Cu585      Cu  0.30781045  0.63563484  0.32778253     0.41990
Cu586      Cu  0.28159279  0.60243143  0.41197689     0.43880
N587        N  0.31363072  0.59452646  0.46567999    -0.34760
N588        N  0.29641000  0.58929314  0.46261513    -0.29010
C589        C  0.29142705  0.57337945  0.49484885    -0.05110
C590        C  0.30634275  0.56833315  0.51895070     0.07100
C591        C  0.32012236  0.58205916  0.49948227     0.00900
H592        H  0.27812450  0.56538678  0.49961892     0.08550
H593        H  0.33394348  0.58269374  0.50883719     0.07630
N594        N  0.27180255  0.61264608  0.35378629    -0.36210
N595        N  0.28150991  0.62274449  0.32309396    -0.28390
C596        C  0.27149955  0.62365006  0.28870165    -0.03630
C597        C  0.25465525  0.61428723  0.29840347     0.04980
C598        C  0.25523164  0.60760555  0.33983986     0.03080
H599        H  0.27614269  0.63071731  0.25888056     0.08180
H600        H  0.24464317  0.59855004  0.35804639     0.07020
N601        N  0.47126171  0.62729002  0.31905699    -0.27370
N602        N  0.45643046  0.61356306  0.32646404    -0.35230
C603        C  0.46032492  0.58993121  0.34618021     0.00970
C604        C  0.47853068  0.58907082  0.35195310     0.06990
C605        C  0.48511458  0.61294394  0.33408985    -0.06100
H606        H  0.45056774  0.57541515  0.35783171     0.07660
H607        H  0.49879017  0.61999118  0.33382447     0.08860
Cu608      Cu  0.43193031  0.63080612  0.31608329     0.44170
Cu609      Cu  0.47091377  0.66677611  0.29572396     0.41990
Cu610      Cu  0.42860476  0.70523959  0.29646893     0.43880
N611        N  0.40847807  0.65238559  0.31420334    -0.34760
N612        N  0.40668410  0.67922368  0.30759891    -0.29010
C613        C  0.38937084  0.68589888  0.31315085    -0.05110
C614        C  0.38016070  0.66204956  0.32379032     0.07100
C615        C  0.39270711  0.64144010  0.32435618     0.00900
H616        H  0.38414383  0.70670988  0.31226037     0.08550
H617        H  0.39072222  0.62019241  0.33379142     0.07630
N618        N  0.45388122  0.72322211  0.28840323    -0.36210
N619        N  0.46876712  0.70866325  0.28667082    -0.28390
C620        C  0.48277156  0.72576414  0.28388881    -0.03630
C621        C  0.47667031  0.75256334  0.28446823     0.04980
C622        C  0.45822026  0.75027449  0.28689323     0.03080
H623        H  0.49652135  0.71912962  0.28407779     0.08180
H624        H  0.44871256  0.76699055  0.28871053     0.07020
N625        N  0.66260466  0.44530338  0.44681477    -0.27370
N626        N  0.65545227  0.45720572  0.41406290    -0.35230
C627        C  0.63779077  0.45315907  0.41475626     0.00970
C628        C  0.63357726  0.43760689  0.44923200     0.06990
C629        C  0.64963085  0.43297928  0.46905029    -0.06100
H630        H  0.62856026  0.46206685  0.39282331     0.07660
H631        H  0.65156332  0.42334466  0.49887067     0.08860
Cu632      Cu  0.66965106  0.48021220  0.37125287     0.44170
Cu633      Cu  0.68930969  0.45021529  0.46090680     0.41990
Cu634      Cu  0.71708420  0.48306507  0.37974453     0.43880
N635        N  0.68570969  0.50070336  0.32915269    -0.34760
N636        N  0.70328116  0.50125041  0.33122284    -0.29010
C637        C  0.70963935  0.51611812  0.29919233    -0.05110
C638        C  0.69529900  0.52541201  0.27612498     0.07100
C639        C  0.68038033  0.51524544  0.29606784     0.00900
H640        H  0.72358851  0.52031372  0.29365637     0.08550
H641        H  0.66661900  0.51820847  0.28727703     0.07630
N642        N  0.72641707  0.46890095  0.43635389    -0.36210
N643        N  0.71624161  0.45882583  0.46621243    -0.28390
C644        C  0.72618782  0.45522208  0.50029080    -0.03630
C645        C  0.74345156  0.46281170  0.49117256     0.04980
C646        C  0.74320224  0.47124425  0.45044386     0.03080
H647        H  0.72118567  0.44771764  0.52955819     0.08180
H648        H  0.75419080  0.47980590  0.43299604     0.07020
N649        N  0.52458692  0.46747400  0.47349552    -0.27370
N650        N  0.53936961  0.48139838  0.46654987    -0.35230
C651        C  0.53547634  0.50512328  0.44712066     0.00970
C652        C  0.51729114  0.50588599  0.44108326     0.06990
C653        C  0.51072584  0.48182296  0.45849290    -0.06100
H654        H  0.54523022  0.51976819  0.43581580     0.07660
H655        H  0.49706520  0.47470722  0.45855616     0.08860
Cu656      Cu  0.56375753  0.46412676  0.47710697     0.44170
Cu657      Cu  0.52530803  0.42809011  0.49733884     0.41990
Cu658      Cu  0.56831583  0.39082040  0.50438551     0.43880
N659        N  0.58729735  0.44300442  0.47756365    -0.34760
N660        N  0.58972423  0.41674706  0.48748579    -0.29010
C661        C  0.60708011  0.41055842  0.48101357    -0.05110
C662        C  0.61552336  0.43403329  0.46576867     0.07100
C663        C  0.60256544  0.45393943  0.46400076     0.00900
H664        H  0.61284576  0.39023895  0.48479292     0.08550
H665        H  0.60396629  0.47481417  0.45239240     0.07630
N666        N  0.54309338  0.37302983  0.51570678    -0.36210
N667        N  0.52802923  0.38718150  0.51347895    -0.28390
C668        C  0.51417004  0.37017167  0.51951503    -0.03630
C669        C  0.52056406  0.34395553  0.52594819     0.04980
C670        C  0.53898207  0.34630581  0.52340768     0.03080
H671        H  0.50034821  0.37627726  0.51739772     0.08180
H672        H  0.54856664  0.32968200  0.52509408     0.07020
N673        N  0.33141695  0.14326655  0.46194456    -0.27370
N674        N  0.33898105  0.13542263  0.42711199    -0.35230
C675        C  0.35623317  0.14253729  0.42780882     0.00970
C676        C  0.35973475  0.15592041  0.46455878     0.06990
C677        C  0.34371596  0.15588174  0.48573854    -0.06100
H678        H  0.36583403  0.13663190  0.40455335     0.07660
H679        H  0.34155390  0.16225302  0.51733209     0.08860
Cu680      Cu  0.32623961  0.11233774  0.38238954     0.44170
Cu681      Cu  0.30545147  0.13220755  0.47595390     0.41990
Cu682      Cu  0.27970071  0.09786150  0.39224119     0.43880
N683        N  0.31206855  0.08948324  0.33976631    -0.34760
N684        N  0.29480047  0.08448039  0.34230042    -0.29010
C685        C  0.28989871  0.06870614  0.30992614    -0.05110
C686        C  0.30490418  0.06352825  0.28624970     0.07100
C687        C  0.31866012  0.07702007  0.30613416     0.00900
H688        H  0.27656592  0.06097599  0.30469788     0.08550
H689        H  0.33252270  0.07755953  0.29711804     0.07630
N690        N  0.26970503  0.10827244  0.45008389    -0.36210
N691        N  0.27929820  0.11880550  0.48059649    -0.28390
C692        C  0.26930585  0.11961863  0.51497281    -0.03630
C693        C  0.25258017  0.10974854  0.50545620     0.04980
C694        C  0.25319657  0.10285063  0.46413865     0.03080
H695        H  0.27389582  0.12690835  0.54468674     0.08180
H696        H  0.24271489  0.09334325  0.44614918     0.07020
N697        N  0.46895891  0.12736176  0.49986753    -0.27370
N698        N  0.45455860  0.11405552  0.48780480    -0.35230
C699        C  0.45928796  0.09089524  0.46803065     0.00970
C700        C  0.47765475  0.08979463  0.46710240     0.06990
C701        C  0.48340317  0.11308044  0.48804263    -0.06100
H702        H  0.45007518  0.07678060  0.45335761     0.07660
H703        H  0.49699800  0.11974373  0.49283473     0.08860
Cu704      Cu  0.42973917  0.13088738  0.49338385     0.44170
Cu705      Cu  0.46740929  0.16639087  0.52482138     0.41990
Cu706      Cu  0.42486234  0.20444181  0.51487313     0.43880
N707        N  0.40594542  0.15133925  0.49318258    -0.34760
N708        N  0.40350782  0.17791719  0.50069914    -0.29010
C709        C  0.38612423  0.18380698  0.49421360    -0.05110
C710        C  0.37760127  0.15971848  0.48185295     0.07100
C711        C  0.39058286  0.13979458  0.48142458     0.00900
H712        H  0.38039753  0.20427309  0.49585037     0.08550
H713        H  0.38916502  0.11858221  0.47139857     0.07630
N714        N  0.44970373  0.22268316  0.52791213    -0.36210
N715        N  0.46448646  0.20827725  0.53370762    -0.28390
C716        C  0.47820506  0.22558176  0.53970532    -0.03630
C717        C  0.47198448  0.25222916  0.53750773     0.04980
C718        C  0.45387831  0.24981271  0.52958655     0.03080
H719        H  0.49195525  0.21921519  0.54250720     0.08180
H720        H  0.44461569  0.26647425  0.52382968     0.07020
N721        N  0.66577494  0.94866011  0.36588561    -0.27370
N722        N  0.65897667  0.95834136  0.40053967    -0.35230
C723        C  0.64138719  0.95381724  0.40076433     0.00970
C724        C  0.63681276  0.94030417  0.36479145     0.06990
C725        C  0.65259276  0.93732973  0.34315047    -0.06100
H726        H  0.63242199  0.96111117  0.42449451     0.07660
H727        H  0.65416347  0.92950983  0.31210396     0.08860
Cu728      Cu  0.67331341  0.97943476  0.44478579     0.44170
Cu729      Cu  0.69228893  0.95510600  0.35116173     0.41990
Cu730      Cu  0.72026498  0.98561460  0.43491661     0.43880
N731        N  0.68896000  0.99927769  0.48792254    -0.34760
N732        N  0.70646469  0.00127328  0.48529596    -0.29010
C733        C  0.71254102  0.01570783  0.51799632    -0.05110
C734        C  0.69805000  0.02313958  0.54203786     0.07100
C735        C  0.68336827  0.01235739  0.52199173     0.00900
H736        H  0.72635828  0.02097512  0.52326311     0.08550
H737        H  0.66957199  0.01408560  0.53119343     0.07630
N738        N  0.72938021  0.97341965  0.37714424    -0.36210
N739        N  0.71918615  0.96428245  0.34666404    -0.28390
C740        C  0.72913513  0.96165431  0.31242517    -0.03630
C741        C  0.74640725  0.96888048  0.32203589     0.04980
C742        C  0.74617013  0.97610123  0.36322816     0.03080
H743        H  0.72414421  0.95492308  0.28276217     0.08180
H744        H  0.75719211  0.98396896  0.38124916     0.07020
N745        N  0.52697400  0.96961515  0.34911675    -0.27370
N746        N  0.54159521  0.98221080  0.36134815    -0.35230
C747        C  0.53726975  0.00480553  0.38300719     0.00970
C748        C  0.51891955  0.00621235  0.38494652     0.06990
C749        C  0.51276771  0.98373330  0.36271850    -0.06100
H750        H  0.54674784  0.01849310  0.39767307     0.07660
H751        H  0.49906757  0.97768990  0.35770331     0.08860
Cu752      Cu  0.56608941  0.96527825  0.35111147     0.44170
Cu753      Cu  0.52821714  0.93215040  0.31951198     0.41990
Cu754      Cu  0.57106027  0.89434557  0.31256202     0.43880
N755        N  0.58985214  0.94535992  0.34400598    -0.34760
N756        N  0.59241855  0.92002423  0.32996029    -0.29010
C757        C  0.61002308  0.91432185  0.33270319    -0.05110
C758        C  0.61851472  0.93714349  0.34972381     0.07100
C759        C  0.60531610  0.95617338  0.35641408     0.00900
H760        H  0.61597804  0.89459998  0.32532342     0.08550
H761        H  0.60671171  0.97623015  0.37079595     0.07630
N762        N  0.54581586  0.87701502  0.30083495    -0.36210
N763        N  0.53088557  0.89149429  0.30235971    -0.28390
C764        C  0.51693495  0.87476856  0.29613532    -0.03630
C765        C  0.52306338  0.84827231  0.29030877     0.04980
C766        C  0.54151045  0.85033723  0.29356345     0.03080
H767        H  0.50318248  0.88130674  0.29770037     0.08180
H768        H  0.55098877  0.83354051  0.29281304     0.07020
C769        C  0.48845475  0.06889122  0.44570986    -0.06200
C770        C  0.48391426  0.04101465  0.45112736    -0.17330
C771        C  0.49383988  0.02006208  0.43260767     0.10990
C772        C  0.50840569  0.02709741  0.40706667    -0.06130
C773        C  0.51298651  0.05495783  0.40173898    -0.17360
C774        C  0.50302533  0.07591822  0.42014321     0.11020
S775        S  0.48784785  0.98491859  0.44488929    -0.32330
S776        S  0.50885651  0.11102179  0.40724021    -0.32340
H777        H  0.49115910  0.12038041  0.40474114     0.29030
H778        H  0.50547398  0.97515541  0.44635451     0.29030
H779        H  0.47283881  0.03547568  0.47094686     0.19620
H780        H  0.52402385  0.06048614  0.38179726     0.19630
C781        C  0.50937466  0.31895416  0.52857492    -0.06200
C782        C  0.50335742  0.31023016  0.56749279    -0.17330
C783        C  0.49041320  0.28944704  0.57124113     0.10990
C784        C  0.48337490  0.27700154  0.53539255    -0.06130
C785        C  0.48932205  0.28581387  0.49653666    -0.17360
C786        C  0.50222152  0.30656955  0.49274731     0.11020
S787        S  0.48323597  0.27985944  0.62242148    -0.32330
S788        S  0.50874651  0.31671573  0.44133457    -0.32340
H789        H  0.52647202  0.32318636  0.45128993     0.29030
H790        H  0.46595347  0.27158206  0.61119446     0.29030
H791        H  0.50840154  0.32020532  0.59505855     0.19620
H792        H  0.48417217  0.27598383  0.46895607     0.19630
C793        C  0.48813671  0.77749055  0.28599718    -0.06200
C794        C  0.50302157  0.77878941  0.25969107    -0.17330
C795        C  0.51468463  0.80142877  0.26016720     0.10990
C796        C  0.51160280  0.82334948  0.28795881    -0.06130
C797        C  0.49677799  0.82191586  0.31440282    -0.17360
C798        C  0.48526593  0.79919529  0.31426588     0.11020
S799        S  0.53275408  0.80139540  0.22356520    -0.32330
S800        S  0.46807068  0.79838759  0.35305865    -0.32340
H801        H  0.47018708  0.77018001  0.36228770     0.29030
H802        H  0.53250350  0.83001168  0.21621971     0.29030
H803        H  0.50544016  0.76216697  0.23803962     0.19620
H804        H  0.49443966  0.83830327  0.33649292     0.19630
C805        C  0.50744126  0.52679503  0.41745523    -0.06200
C806        C  0.50964454  0.55460295  0.42824701    -0.17330
C807        C  0.50008114  0.57534666  0.40809936     0.10990
C808        C  0.48842103  0.56821032  0.37557819    -0.06130
C809        C  0.48624672  0.54041227  0.36474537    -0.17360
C810        C  0.49583656  0.51968217  0.38483125     0.11020
S811        S  0.50257880  0.61015962  0.42696946    -0.32330
S812        S  0.49349160  0.48492300  0.36565956    -0.32340
H813        H  0.51144259  0.47766124  0.37165621     0.29030
H814        H  0.48466691  0.61761119  0.42089148     0.29030
H815        H  0.51846290  0.56010230  0.45343385     0.19620
H816        H  0.47744322  0.53491343  0.33953179     0.19630
C817        C  0.51319201  0.06994869  0.89541132    -0.06200
C818        C  0.52338884  0.05554361  0.92467658    -0.17330
C819        C  0.51550087  0.03726692  0.95269965     0.10990
C820        C  0.49693859  0.03244381  0.95093748    -0.06130
C821        C  0.48670253  0.04700832  0.92189200    -0.17360
C822        C  0.49459272  0.06535281  0.89389890     0.11020
S823        S  0.52978926  0.02222867  0.99138987    -0.32330
S824        S  0.48028257  0.08063957  0.85547353    -0.32340
H825        H  0.49283486  0.07906052  0.82333585     0.29030
H826        H  0.51704719  0.02326637  0.02318016     0.29030
H827        H  0.53759189  0.05926349  0.92675686     0.19620
H828        H  0.47250534  0.04324300  0.91978882     0.19630
C829        C  0.51392532  0.77234112  0.04856750    -0.06200
C830        C  0.51748729  0.79003713  0.08195041    -0.17330
C831        C  0.50760125  0.81428888  0.08799433     0.10990
C832        C  0.49366377  0.82099066  0.06049011    -0.06130
C833        C  0.49010559  0.80347889  0.02720139    -0.17360
C834        C  0.50036264  0.77985667  0.02017227     0.11020
S835        S  0.51334334  0.83587309  0.13130535    -0.32330
S836        S  0.49655330  0.76210434  0.97207992    -0.32340
H837        H  0.51465986  0.75640969  0.96488585     0.29030
H838        H  0.49613967  0.84645704  0.13771284     0.29030
H839        H  0.52785193  0.78476924  0.10384979     0.19620
H840        H  0.47994687  0.80919146  0.00500196     0.19630
C841        C  0.49406645  0.32147786  0.74459497    -0.06200
C842        C  0.50495047  0.31301402  0.71174415    -0.17330
C843        C  0.51513813  0.28872584  0.71431581     0.10990
C844        C  0.51482037  0.27280084  0.75102637    -0.06130
C845        C  0.50397174  0.28159698  0.78383598    -0.17360
C846        C  0.49362200  0.30549143  0.78099320     0.11020
S847        S  0.52774749  0.27889791  0.66939672    -0.32330
S848        S  0.48084243  0.31521435  0.82578606    -0.32340
H849        H  0.46618410  0.32558702  0.80381893     0.29030
H850        H  0.52418999  0.25048974  0.67336754     0.29030
H851        H  0.50550985  0.32541690  0.68388360     0.19620
H852        H  0.50367370  0.26988948  0.81236618     0.19630
C853        C  0.49732964  0.53185080  0.85710551    -0.06200
C854        C  0.48737855  0.54421141  0.88870836    -0.17330
C855        C  0.49537222  0.56178678  0.91750658     0.10990
C856        C  0.51372282  0.56807847  0.91402748    -0.06130
C857        C  0.52362914  0.55585487  0.88216420    -0.17360
C858        C  0.51564895  0.53812648  0.85355626     0.11020
S859        S  0.48161696  0.57368878  0.95944646    -0.32330
S860        S  0.52941036  0.52547193  0.81210750    -0.32340
H861        H  0.51586463  0.52609437  0.78211214     0.29030
H862        H  0.49506092  0.57153580  0.98953534     0.29030
H863        H  0.47339401  0.53916204  0.89217280     0.19620
H864        H  0.53762079  0.56081499  0.87865307     0.19630
C865        C  0.01452786  0.52098616  0.81529321    -0.06200
C866        C  0.00325590  0.51431026  0.84834556    -0.17330
C867        C  0.99336169  0.53466703  0.86840532     0.10990
C868        C  0.99427046  0.56224346  0.85422970    -0.06130
C869        C  0.00549238  0.56885162  0.82101041    -0.17360
C870        C  0.01552462  0.54851709  0.80124473     0.11020
S871        S  0.98093313  0.52440512  0.91354334    -0.32330
S872        S  0.02889424  0.55883705  0.75761266    -0.32340
H873        H  0.02751367  0.53364328  0.73631051     0.29030
H874        H  0.98414071  0.54888934  0.93566381     0.29030
H875        H  0.00276853  0.49326299  0.85980493     0.19620
H876        H  0.00615411  0.58993652  0.80977466     0.19630
C877        C  0.99162188  0.76385810  0.99377380    -0.06200
C878        C  0.00881107  0.75735233  0.00805936    -0.17330
C879        C  0.02096913  0.77789730  0.01953066     0.10990
C880        C  0.01613317  0.80599211  0.01590972    -0.06130
C881        C  0.99875286  0.81245919  0.00273236    -0.17360
C882        C  0.98657947  0.79189517  0.99135764     0.11020
S883        S  0.04205870  0.76663746  0.04005496    -0.32330
S884        S  0.96543292  0.80309419  0.97113604    -0.32340
H885        H  0.96519030  0.78394710  0.93853689     0.29030
H886        H  0.04335032  0.78789775  0.06944512     0.29030
H887        H  0.01279169  0.73591314  0.01080101     0.19620
H888        H  0.99479261  0.83384730  0.99932178     0.19630
C889        C  0.99539062  0.26491204  0.81876764    -0.06200
C890        C  0.99332389  0.27801427  0.78045154    -0.17330
C891        C  0.00534295  0.29836493  0.76725253     0.10990
C892        C  0.01958697  0.30637593  0.79329243    -0.06130
C893        C  0.02159020  0.29331578  0.83165200    -0.17360
C894        C  0.00955990  0.27309150  0.84490329     0.11020
S895        S  0.00228514  0.31221305  0.71601426    -0.32330
S896        S  0.01247633  0.25976581  0.89651062    -0.32340
H897        H  0.99420009  0.25610271  0.90439748     0.29030
H898        H  0.02049773  0.31659604  0.70819011     0.29030
H899        H  0.98272514  0.27153120  0.75990843     0.19620
H900        H  0.03214284  0.29979616  0.85232510     0.19630
C901        C  0.99550598  0.06411733  0.96050516    -0.06200
C902        C  0.98945593  0.03701124  0.95436069    -0.17330
C903        C  0.99950767  0.01433363  0.96731752     0.10990
C904        C  0.01578023  0.01873794  0.98832721    -0.06130
C905        C  0.02166223  0.04586273  0.99511388    -0.17360
C906        C  0.01165174  0.06853025  0.98195796     0.11020
S907        S  0.99150540  0.98060690  0.95274690    -0.32330
S908        S  0.01986424  0.10238060  0.99527367    -0.32340
H909        H  0.00293120  0.11401502  0.00162939     0.29030
H910        H  0.00840663  0.97033793  0.94209797     0.29030
H911        H  0.97723341  0.03340210  0.93740007     0.19620
H912        H  0.03402216  0.04944544  0.01155191     0.19630
C913        C  0.99009917  0.00960607  0.40263680    -0.06200
C914        C  0.99736053  0.00067245  0.44026373    -0.17330
C915        C  0.00511248  0.01934758  0.46781192     0.10990
C916        C  0.00598799  0.04763210  0.45726992    -0.06130
C917        C  0.99884940  0.05654154  0.41951863    -0.17360
C918        C  0.99118639  0.03784941  0.39187238     0.11020
S919        S  0.01271658  0.00595802  0.51669998    -0.32330
S920        S  0.98406650  0.05114474  0.34253344    -0.32340
H921        H  0.98881605  0.02746558  0.32000125     0.29030
H922        H  0.00805741  0.02945359  0.53974283     0.29030
H923        H  0.99642499  0.97908271  0.44895953     0.19620
H924        H  0.99980132  0.07813580  0.41084778     0.19630
C925        C  0.00973820  0.75707866  0.25507809    -0.06200
C926        C  0.00423163  0.76572351  0.29433500    -0.17330
C927        C  0.99382442  0.78934477  0.29951989     0.10990
C928        C  0.98879095  0.80510249  0.26469784    -0.06130
C929        C  0.99420594  0.79647914  0.22527439    -0.17360
C930        C  0.00457637  0.77258971  0.22006059     0.11020
S931        S  0.98703507  0.79782855  0.35138438    -0.32330
S932        S  0.01051371  0.76288129  0.16813021    -0.32340
H933        H  0.01073071  0.73422658  0.17504590     0.29030
H934        H  0.97032730  0.80862651  0.34027308     0.29030
H935        H  0.00789592  0.75369080  0.32128063     0.19620
H936        H  0.99048470  0.80857622  0.19845568     0.19630
C937        C  0.99029488  0.30804868  0.55165096    -0.06200
C938        C  0.98563418  0.28956548  0.58338956    -0.17330
C939        C  0.99528846  0.26519652  0.59016737     0.10990
C940        C  0.01006966  0.25900429  0.56489184    -0.06130
C941        C  0.01481393  0.27735934  0.53334781    -0.17360
C942        C  0.00492573  0.30141302  0.52573982     0.11020
S943        S  0.98815804  0.24293722  0.63171207    -0.32330
S944        S  0.01005946  0.32133836  0.47996598    -0.32340
H945        H  0.02592883  0.30767016  0.46940444     0.29030
H946        H  0.00509092  0.23202408  0.64044342     0.29030
H947        H  0.97450186  0.29425799  0.60343402     0.19620
H948        H  0.02571931  0.27191422  0.51309069     0.19630
C949        C  0.98840274  0.51005139  0.41263183    -0.06200
C950        C  0.99124814  0.53672959  0.42787758    -0.17330
C951        C  0.00142644  0.55587050  0.40578035     0.10990
C952        C  0.00842591  0.54853665  0.36681494    -0.06130
C953        C  0.00564693  0.52176946  0.35165412    -0.17360
C954        C  0.99556655  0.50254330  0.37395685     0.11020
S955        S  0.00587859  0.58863721  0.43012385    -0.32330
S956        S  0.99167209  0.46925815  0.35068960    -0.32340
H957        H  0.97462915  0.46530570  0.36772778     0.29030
H958        H  0.02318371  0.59153887  0.41403088     0.29030
H959        H  0.98606509  0.54233919  0.45793797     0.19620
H960        H  0.01084683  0.51611738  0.32163297     0.19630
loop_ 
_geom_bond_atom_site_label_1 
_geom_bond_atom_site_label_2 
_geom_bond_distance 
_geom_bond_site_symmetry_2 
_ccdc_geom_bond_type 
N1            N2   1.321       .  A
N1            C5   1.346       .  A
N1           Cu9   2.070       .  S
N2            C3   1.344       .  A
N2           Cu8   2.070       .  S
C3            C4   1.381       .  A
C3            H6   1.082       .  S
C4            C5   1.382       .  A
C4           C38   1.463       .  S
C5            H7   1.082       .  S
Cu8          N11   2.071       .  S
Cu9          N19   2.071       .  S
Cu10         N12   2.076       .  S
Cu10         N18   2.077       .  S
N11          N12   1.322       .  A
N11          C15   1.341       .  A
N12          C13   1.349       .  A
C13          C14   1.385       .  A
C13          H16   1.082       .  S
C14          C15   1.382       .  A
C14         C350   1.472       .  S
C15          H17   1.081       .  S
N18          N19   1.324       .  A
N18          C22   1.345       .  A
N19          C20   1.344       .  A
C20          C21   1.379       .  A
C20          H23   1.082       .  S
C21          C22   1.381       .  A
C21         C645   1.463       .  S
C22          H24   1.082       .  S
N25          N26   1.319       .  A
N25          C29   1.342       .  A
N25         Cu33   2.059       .  S
N26          C27   1.345       .  A
N26         Cu32   2.062       .  S
C27          C28   1.382       .  A
C27          H30   1.082       .  S
C28          C29   1.380       .  A
C28         C949   1.469       .  S
C29          H31   1.082       .  S
Cu32         N35   2.063       .  S
Cu33         N43   2.058       .  S
Cu34         N36   2.100       .  S
Cu34         N42   2.099       .  S
N35          N36   1.326       .  A
N35          C39   1.342       .  A
N36          C37   1.349       .  A
C37          C38   1.384       .  A
C37          H40   1.082       .  S
C38          C39   1.375       .  A
C39          H41   1.083       .  S
N42          N43   1.321       .  A
N42          C46   1.351       .  A
N43          C44   1.340       .  A
C44          C45   1.383       .  A
C44          H47   1.080       .  S
C45          C46   1.394       .  A
C45         C937   1.491       .  S
C46          H48   1.082       .  S
N49          N50   1.321       .  A
N49          C53   1.347       .  A
N49         Cu57   2.074       .  S
N50          C51   1.343       .  A
N50         Cu56   2.068       .  S
C51          C52   1.380       .  A
C51          H54   1.082       .  S
C52          C53   1.383       .  A
C52          C86   1.465       .  S
C53          H55   1.082       .  S
Cu56         N59   2.068       .  S
Cu57         N67   2.074       .  S
Cu58         N60   2.077       .  S
Cu58         N66   2.078       .  S
N59          N60   1.322       .  A
N59          C63   1.342       .  A
N60          C61   1.348       .  A
C61          C62   1.385       .  A
C61          H64   1.082       .  S
C62          C63   1.382       .  A
C62         C302   1.472       .  S
C63          H65   1.081       .  S
N66          N67   1.324       .  A
N66          C70   1.345       .  A
N67          C68   1.345       .  A
C68          C69   1.380       .  A
C68          H71   1.082       .  S
C69          C70   1.381       .  A
C69         C597   1.465       .  S
C70          H72   1.082       .  S
N73          N74   1.319       .  A
N73          C77   1.341       .  A
N73         Cu81   2.054       .  S
N74          C75   1.346       .  A
N74         Cu80   2.064       .  S
C75          C76   1.384       .  A
C75          H78   1.082       .  S
C76          C77   1.381       .  A
C76         C952   1.472       .  S
C77          H79   1.082   1_455  S
Cu80         N83   2.066       .  S
Cu81         N91   2.055       .  S
Cu82         N84   2.101       .  S
Cu82         N90   2.100       .  S
N83          N84   1.326       .  A
N83          C87   1.342       .  A
N84          C85   1.350       .  A
C85          C86   1.384       .  A
C85          H88   1.082       .  S
C86          C87   1.375       .  A
C87          H89   1.083       .  S
N90          N91   1.322       .  A
N90          C94   1.353       .  A
N91          C92   1.339       .  A
C92          C93   1.377       .  A
C92          H95   1.082       .  S
C93          C94   1.391       .  A
C93         C925   1.478       .  S
C94          H96   1.082       .  S
N97          N98   1.321       .  A
N97         C101   1.347       .  A
N97        Cu105   2.071       .  S
N98          C99   1.343       .  A
N98        Cu104   2.070       .  S
C99         C100   1.381       .  A
C99         H102   1.082       .  S
C100        C101   1.383       .  A
C100        C134   1.464       .  S
C101        H103   1.082       .  S
Cu104       N107   2.070       .  S
Cu105       N115   2.072       .  S
Cu106       N108   2.076       .  S
Cu106       N114   2.076       .  S
N107        N108   1.322       .  A
N107        C111   1.342       .  A
N108        C109   1.348       .  A
C109        C110   1.385       .  A
C109        H112   1.082       .  S
C110        C111   1.382       .  A
C110        C254   1.472       .  S
C111        H113   1.081       .  S
N114        N115   1.324       .  A
N114        C118   1.344       .  A
N115        C116   1.345       .  A
C116        C117   1.379       .  A
C116        H119   1.082       .  S
C117        C118   1.380       .  A
C117        C693   1.463       .  S
C118        H120   1.082       .  S
N121        N122   1.319       .  A
N121        C125   1.343       .  A
N121       Cu129   2.065       .  S
N122        C123   1.344       .  A
N122       Cu128   2.057       .  S
C123        C124   1.383       .  A
C123        H126   1.082       .  S
C124        C125   1.383       .  A
C124        C916   1.474       .  S
C125        H127   1.082   1_455  S
Cu128       N131   2.057       .  S
Cu129       N139   2.066       .  S
Cu130       N132   2.098       .  S
Cu130       N138   2.099       .  S
N131        N132   1.324       .  A
N131        C135   1.340       .  A
N132        C133   1.350       .  A
C133        C134   1.386       .  A
C133        H136   1.082       .  S
C134        C135   1.375       .  A
C135        H137   1.083       .  S
N138        N139   1.324       .  A
N138        C142   1.350       .  A
N139        C140   1.343       .  A
C140        C141   1.379       .  A
C140        H143   1.082   1_455  S
C141        C142   1.388       .  A
C141        C940   1.478       .  S
C142        H144   1.082       .  S
N145        N146   1.321       .  A
N145        C149   1.346       .  A
N145       Cu153   2.071       .  S
N146        C147   1.344       .  A
N146       Cu152   2.070       .  S
C147        C148   1.381       .  A
C147        H150   1.082       .  S
C148        C149   1.382       .  A
C148        C182   1.463       .  S
C149        H151   1.082       .  S
Cu152       N155   2.071   1_565  S
Cu153       N163   2.071       .  S
Cu154       N156   2.073   1_565  S
Cu154       N162   2.073       .  S
N155        N156   1.322       .  A
N155        C159   1.342       .  A
N156        C157   1.348       .  A
C157        C158   1.384       .  A
C157        H160   1.082       .  S
C158        C159   1.382       .  A
C158        C206   1.471       .  S
C159        H161   1.082       .  S
N162        N163   1.324       .  A
N162        C166   1.344       .  A
N163        C164   1.344       .  A
C164        C165   1.380       .  A
C164        H167   1.082       .  S
C165        C166   1.380       .  A
C165        C741   1.463       .  S
C166        H168   1.082       .  S
N169        N170   1.319       .  A
N169        C173   1.343       .  A
N169       Cu177   2.062       .  S
N170        C171   1.343       .  A
N170       Cu176   2.059       .  S
C171        C172   1.384       .  A
C171        H174   1.082   1_565  S
C172        C173   1.383       .  A
C172        C913   1.475   1_565  S
C173        H175   1.082       .  S
Cu176       N179   2.059       .  S
Cu177       N187   2.063       .  S
Cu178       N180   2.098       .  S
Cu178       N186   2.099       .  S
N179        N180   1.325       .  A
N179        C183   1.342       .  A
N180        C181   1.350       .  A
C181        C182   1.385       .  A
C181        H184   1.082       .  S
C182        C183   1.374       .  A
C183        H185   1.083       .  S
N186        N187   1.323       .  A
N186        C190   1.351       .  A
N187        C188   1.341       .  A
C188        C189   1.378       .  A
C188        H191   1.082       .  S
C189        C190   1.388       .  A
C189        C928   1.478       .  S
C190        H192   1.082       .  S
N193        N194   1.320       .  A
N193        C197   1.354       .  A
N193       Cu201   2.090       .  S
N194        C195   1.335       .  A
N194       Cu200   2.049       .  S
C195        C196   1.377       .  A
C195        H198   1.082       .  S
C196        C197   1.390       .  A
C196        C230   1.470       .  S
C197        H199   1.082       .  S
Cu200       N203   2.049       .  S
Cu201       N211   2.093       .  S
Cu202       N204   2.079       .  S
Cu202       N210   2.082       .  S
N203        N204   1.319       .  A
N203        C207   1.340   1_556  A
N204        C205   1.349   1_556  A
C205        C206   1.388       .  A
C205        H208   1.082       .  S
C206        C207   1.379       .  A
C207        H209   1.082       .  S
N210        N211   1.327       .  A
N210        C214   1.344       .  A
N211        C212   1.348       .  A
C212        C213   1.382       .  A
C212        H215   1.082       .  S
C213        C214   1.379       .  A
C213        C501   1.467       .  S
C214        H216   1.082       .  S
N217        N218   1.316       .  A
N217        C221   1.342       .  A
N217       Cu225   2.052       .  S
N218        C219   1.343       .  A
N218       Cu224   2.053       .  S
C219        C220   1.385       .  A
C219        H222   1.082       .  S
C220        C221   1.385       .  A
C220        C901   1.476       .  S
C221        H223   1.081   1_655  S
Cu224       N227   2.054       .  S
Cu225       N235   2.053       .  S
Cu226       N228   2.104       .  S
Cu226       N234   2.105       .  S
N227        N228   1.324       .  A
N227        C231   1.335       .  A
N228        C229   1.355       .  A
C229        C230   1.390       .  A
C229        H232   1.082       .  S
C230        C231   1.374       .  A
C231        H233   1.083       .  S
N234        N235   1.324       .  A
N234        C238   1.352       .  A
N235        C236   1.338       .  A
C236        C237   1.376       .  A
C236        H239   1.082   1_655  S
C237        C238   1.391       .  A
C237        C889   1.479       .  S
C238        H240   1.082       .  S
N241        N242   1.320       .  A
N241        C245   1.347       .  A
N241       Cu249   2.070       .  S
N242        C243   1.341       .  A
N242       Cu248   2.062       .  S
C243        C244   1.380       .  A
C243        H246   1.082       .  S
C244        C245   1.384       .  A
C244        C278   1.462       .  S
C245        H247   1.082   1_556  S
Cu248       N251   2.062       .  S
Cu249       N259   2.071       .  S
Cu250       N252   2.083       .  S
Cu250       N258   2.084       .  S
N251        N252   1.322       .  A
N251        C255   1.341       .  A
N252        C253   1.349   1_565  A
C253        C254   1.387       .  A
C253        H256   1.082       .  S
C254        C255   1.380   1_545  A
C255        H257   1.081       .  S
N258        N259   1.325       .  A
N258        C262   1.346       .  A
N259        C260   1.344   1_556  A
C260        C261   1.378       .  A
C260        H263   1.082       .  S
C261        C262   1.382   1_554  A
C261        C549   1.464       .  S
C262        H264   1.082       .  S
N265        N266   1.318       .  A
N265        C269   1.343       .  A
N265       Cu273   2.062       .  S
N266        C267   1.342   1_554  A
N266       Cu272   2.052       .  S
C267        C268   1.382   1_556  A
C267        H270   1.082   1_565  S
C268        C269   1.385       .  A
C268        C904   1.476   1_564  S
C269        H271   1.081       .  S
Cu272       N275   2.053   1_554  S
Cu273       N283   2.062       .  S
Cu274       N276   2.095   1_554  S
Cu274       N282   2.096       .  S
N275        N276   1.323       .  A
N275        C279   1.339       .  A
N276        C277   1.350       .  A
C277        C278   1.386       .  A
C277        H280   1.082       .  S
C278        C279   1.374       .  A
C279        H281   1.083       .  S
N282        N283   1.322       .  A
N282        C286   1.349       .  A
N283        C284   1.341       .  A
C284        C285   1.382       .  A
C284        H287   1.081       .  S
C285        C286   1.393       .  A
C285        C880   1.488       .  S
C286        H288   1.081   1_554  S
N289        N290   1.320       .  A
N289        C293   1.347       .  A
N289       Cu297   2.071       .  S
N290        C291   1.341       .  A
N290       Cu296   2.062       .  S
C291        C292   1.380       .  A
C291        H294   1.082       .  S
C292        C293   1.384       .  A
C292        C326   1.463       .  S
C293        H295   1.082       .  S
Cu296       N299   2.062       .  S
Cu297       N307   2.072       .  S
Cu298       N300   2.082       .  S
Cu298       N306   2.083       .  S
N299        N300   1.322       .  A
N299        C303   1.341       .  A
N300        C301   1.349       .  A
C301        C302   1.387   1_556  A
C301        H304   1.082   1_556  S
C302        C303   1.380   1_554  A
C303        H305   1.081   1_556  S
N306        N307   1.325       .  A
N306        C310   1.346       .  A
N307        C308   1.344       .  A
C308        C309   1.379       .  A
C308        H311   1.082       .  S
C309        C310   1.382       .  A
C309        C405   1.465       .  S
C310        H312   1.082       .  S
N313        N314   1.319       .  A
N313        C317   1.342       .  A
N313       Cu321   2.056       .  S
N314        C315   1.343       .  A
N314       Cu320   2.058       .  S
C315        C316   1.382       .  A
C315        H318   1.082       .  S
C316        C317   1.381       .  A
C316        C865   1.469       .  S
C317        H319   1.082       .  S
Cu320       N323   2.059       .  S
Cu321       N331   2.055       .  S
Cu322       N324   2.095       .  S
Cu322       N330   2.095       .  S
N323        N324   1.324       .  A
N323        C327   1.340       .  A
N324        C325   1.350       .  A
C325        C326   1.385       .  A
C325        H328   1.082       .  S
C326        C327   1.375       .  A
C327        H329   1.083       .  S
N330        N331   1.322       .  A
N330        C334   1.349       .  A
N331        C332   1.341       .  A
C332        C333   1.379       .  A
C332        H335   1.082       .  S
C333        C334   1.390       .  A
C333        C892   1.480       .  S
C334        H336   1.082       .  S
N337        N338   1.320       .  A
N337        C341   1.353       .  A
N337       Cu345   2.084       .  S
N338        C339   1.337       .  A
N338       Cu344   2.053       .  S
C339        C340   1.379       .  A
C339        H342   1.082       .  S
C340        C341   1.389       .  A
C340        C374   1.469       .  S
C341        H343   1.082       .  S
Cu344       N347   2.053       .  S
Cu345       N355   2.087       .  S
Cu346       N348   2.082       .  S
Cu346       N354   2.085       .  S
N347        N348   1.319       .  A
N347        C351   1.340       .  A
N348        C349   1.350       .  A
C349        C350   1.389       .  A
C349        H352   1.082       .  S
C350        C351   1.380       .  A
C351        H353   1.081       .  S
N354        N355   1.327       .  A
N354        C358   1.344       .  A
N355        C356   1.347       .  A
C356        C357   1.381       .  A
C356        H359   1.082   1_556  S
C357        C358   1.379       .  A
C357        C453   1.467   1_556  S
C358        H360   1.082       .  S
N361        N362   1.317       .  A
N361        C365   1.342       .  A
N361       Cu369   2.053       .  S
N362        C363   1.343       .  A
N362       Cu368   2.051       .  S
C363        C364   1.384       .  A
C363        H366   1.082       .  S
C364        C365   1.383       .  A
C364        C868   1.472       .  S
C365        H367   1.082   1_655  S
Cu368       N371   2.052       .  S
Cu369       N379   2.054       .  S
Cu370       N372   2.105       .  S
Cu370       N378   2.106       .  S
N371        N372   1.324       .  A
N371        C375   1.335       .  A
N372        C373   1.355       .  A
C373        C374   1.390       .  A
C373        H376   1.082       .  S
C374        C375   1.374       .  A
C375        H377   1.083       .  S
N378        N379   1.324       .  A
N378        C382   1.352       .  A
N379        C380   1.338       .  A
C380        C381   1.377       .  A
C380        H383   1.082       .  S
C381        C382   1.394       .  A
C381        C877   1.485       .  S
C382        H384   1.081   1_556  S
N385        N386   1.321       .  A
N385        C389   1.347       .  A
N385       Cu393   2.074       .  S
N386        C387   1.343       .  A
N386       Cu392   2.070       .  S
C387        C388   1.381       .  A
C387        H390   1.082       .  S
C388        C389   1.383       .  A
C388        C422   1.465       .  S
C389        H391   1.082       .  S
Cu392       N395   2.070       .  S
Cu393       N403   2.074       .  S
Cu394       N396   2.078       .  S
Cu394       N402   2.079       .  S
N395        N396   1.322       .  A
N395        C399   1.342       .  A
N396        C397   1.349       .  A
C397        C398   1.385       .  A
C397        H400   1.082       .  S
C398        C399   1.382       .  A
C398        C590   1.472       .  S
C399        H401   1.081       .  S
N402        N403   1.324       .  A
N402        C406   1.345       .  A
N403        C404   1.345       .  A
C404        C405   1.380       .  A
C404        H407   1.082       .  S
C405        C406   1.381       .  A
C406        H408   1.082       .  S
N409        N410   1.319       .  A
N409        C413   1.343       .  A
N409       Cu417   2.065       .  S
N410        C411   1.344       .  A
N410       Cu416   2.060       .  S
C411        C412   1.385       .  A
C411        H414   1.082       .  S
C412        C413   1.385       .  A
C412        C853   1.478       .  S
C413        H415   1.081       .  S
Cu416       N419   2.061       .  S
Cu417       N427   2.066       .  S
Cu418       N420   2.100       .  S
Cu418       N426   2.101       .  S
N419        N420   1.325       .  A
N419        C423   1.341       .  A
N420        C421   1.350       .  A
C421        C422   1.385       .  A
C421        H424   1.082       .  S
C422        C423   1.375       .  A
C423        H425   1.083       .  S
N426        N427   1.324       .  A
N426        C430   1.351       .  A
N427        C428   1.343       .  A
C428        C429   1.377       .  A
C428        H431   1.082       .  S
C429        C430   1.389       .  A
C429        C841   1.477       .  S
C430        H432   1.082       .  S
N433        N434   1.321       .  A
N433        C437   1.346       .  A
N433       Cu441   2.072       .  S
N434        C435   1.344       .  A
N434       Cu440   2.067       .  S
C435        C436   1.381       .  A
C435        H438   1.082       .  S
C436        C437   1.383       .  A
C436        C470   1.463       .  S
C437        H439   1.082       .  S
Cu440       N443   2.067       .  S
Cu441       N451   2.072       .  S
Cu442       N444   2.087       .  S
Cu442       N450   2.087       .  S
N443        N444   1.322       .  A
N443        C447   1.342       .  A
N444        C445   1.350       .  A
C445        C446   1.387       .  A
C445        H448   1.082       .  S
C446        C447   1.381       .  A
C446        C638   1.474       .  S
C447        H449   1.081       .  S
N450        N451   1.324       .  A
N450        C454   1.347       .  A
N451        C452   1.344       .  A
C452        C453   1.379       .  A
C452        H455   1.082   1_554  S
C453        C454   1.383       .  A
C454        H456   1.082       .  S
N457        N458   1.318       .  A
N457        C461   1.343       .  A
N457       Cu465   2.062   1_556  S
N458        C459   1.344       .  A
N458       Cu464   2.062   1_556  S
C459        C460   1.386       .  A
C459        H462   1.082       .  S
C460        C461   1.386       .  A
C460        C856   1.481       .  S
C461        H463   1.081       .  S
Cu464       N467   2.064       .  S
Cu465       N475   2.063       .  S
Cu466       N468   2.098       .  S
Cu466       N474   2.098       .  S
N467        N468   1.325       .  A
N467        C471   1.342       .  A
N468        C469   1.349       .  A
C469        C470   1.384       .  A
C469        H472   1.082       .  S
C470        C471   1.375       .  A
C471        H473   1.083       .  S
N474        N475   1.322       .  A
N474        C478   1.351       .  A
N475        C476   1.340       .  A
C476        C477   1.382       .  A
C476        H479   1.081       .  S
C477        C478   1.393       .  A
C477        C829   1.489       .  S
C478        H480   1.082       .  S
N481        N482   1.321       .  A
N481        C485   1.348       .  A
N481       Cu489   2.079       .  S
N482        C483   1.344       .  A
N482       Cu488   2.066       .  S
C483        C484   1.380       .  A
C483        H486   1.082       .  S
C484        C485   1.384       .  A
C484        C518   1.465       .  S
C485        H487   1.082       .  S
Cu488       N491   2.066       .  S
Cu489       N499   2.079       .  S
Cu490       N492   2.082       .  S
Cu490       N498   2.083       .  S
N491        N492   1.322       .  A
N491        C495   1.341       .  A
N492        C493   1.349       .  A
C493        C494   1.386       .  A
C493        H496   1.082       .  S
C494        C495   1.381       .  A
C494        C734   1.472       .  S
C495        H497   1.081       .  S
N498        N499   1.325       .  A
N498        C502   1.347       .  A
N499        C500   1.345       .  A
C500        C501   1.381       .  A
C500        H503   1.082       .  S
C501        C502   1.382       .  A
C502        H504   1.082       .  S
N505        N506   1.318       .  A
N505        C509   1.344       .  A
N505       Cu513   2.063       .  S
N506        C507   1.343       .  A
N506       Cu512   2.062       .  S
C507        C508   1.386       .  A
C507        H510   1.082       .  S
C508        C509   1.386       .  A
C508        C817   1.481       .  S
C509        H511   1.081       .  S
Cu512       N515   2.063       .  S
Cu513       N523   2.064       .  S
Cu514       N516   2.103       .  S
Cu514       N522   2.103       .  S
N515        N516   1.325       .  A
N515        C519   1.342       .  A
N516        C517   1.350       .  A
C517        C518   1.386       .  A
C517        H520   1.082       .  S
C518        C519   1.375       .  A
C519        H521   1.083       .  S
N522        N523   1.322       .  A
N522        C526   1.353       .  A
N523        C524   1.340       .  A
C524        C525   1.381       .  A
C524        H527   1.082       .  S
C525        C526   1.394       .  A
C525        C844   1.489       .  S
C526        H528   1.082       .  S
N529        N530   1.321       .  A
N529        C533   1.347       .  A
N529       Cu537   2.071       .  S
N530        C531   1.343       .  A
N530       Cu536   2.068   1_565  S
C531        C532   1.380       .  A
C531        H534   1.082       .  S
C532        C533   1.382       .  A
C532        C566   1.464       .  S
C533        H535   1.082       .  S
Cu536       N539   2.068       .  S
Cu537       N547   2.072       .  S
Cu538       N540   2.080       .  S
Cu538       N546   2.080   1_545  S
N539        N540   1.322       .  A
N539        C543   1.342       .  A
N540        C541   1.349       .  A
C541        C542   1.386       .  A
C541        H544   1.082       .  S
C542        C543   1.382       .  A
C542        C686   1.473       .  S
C543        H545   1.081       .  S
N546        N547   1.324       .  A
N546        C550   1.345       .  A
N547        C548   1.345       .  A
C548        C549   1.379       .  A
C548        H551   1.082   1_554  S
C549        C550   1.381       .  A
C550        H552   1.082       .  S
N553        N554   1.319       .  A
N553        C557   1.343   1_554  A
N553       Cu561   2.065       .  S
N554        C555   1.344   1_564  A
N554       Cu560   2.061       .  S
C555        C556   1.386       .  A
C555        H558   1.082       .  S
C556        C557   1.386   1_545  A
C556        C820   1.481       .  S
C557        H559   1.081       .  S
Cu560       N563   2.062       .  S
Cu561       N571   2.066       .  S
Cu562       N564   2.095       .  S
Cu562       N570   2.095       .  S
N563        N564   1.325       .  A
N563        C567   1.341       .  A
N564        C565   1.349       .  A
C565        C566   1.384       .  A
C565        H568   1.082       .  S
C566        C567   1.375       .  A
C567        H569   1.083       .  S
N570        N571   1.323       .  A
N570        C574   1.350       .  A
N571        C572   1.343       .  A
C572        C573   1.378       .  A
C572        H575   1.082       .  S
C573        C574   1.387       .  A
C573        C832   1.476       .  S
C574        H576   1.082       .  S
N577        N578   1.320       .  A
N577        C581   1.349       .  A
N577       Cu585   2.074       .  S
N578        C579   1.340       .  A
N578       Cu584   2.063       .  S
C579        C580   1.381       .  A
C579        H582   1.082       .  S
C580        C581   1.385       .  A
C580        C614   1.465       .  S
C581        H583   1.082       .  S
Cu584       N587   2.063       .  S
Cu585       N595   2.076       .  S
Cu586       N588   2.081       .  S
Cu586       N594   2.082       .  S
N587        N588   1.321       .  A
N587        C591   1.341       .  A
N588        C589   1.349       .  A
C589        C590   1.387       .  A
C589        H592   1.082       .  S
C590        C591   1.381       .  A
C591        H593   1.081       .  S
N594        N595   1.325       .  A
N594        C598   1.346       .  A
N595        C596   1.344       .  A
C596        C597   1.379       .  A
C596        H599   1.082       .  S
C597        C598   1.381       .  A
C598        H600   1.082       .  S
N601        N602   1.318       .  A
N601        C605   1.343       .  A
N601       Cu609   2.055       .  S
N602        C603   1.342       .  A
N602       Cu608   2.049       .  S
C603        C604   1.380       .  A
C603        H606   1.082       .  S
C604        C605   1.383       .  A
C604        C808   1.469       .  S
C605        H607   1.082       .  S
Cu608       N611   2.050       .  S
Cu609       N619   2.055       .  S
Cu610       N612   2.102       .  S
Cu610       N618   2.103       .  S
N611        N612   1.324       .  A
N611        C615   1.338       .  A
N612        C613   1.352       .  A
C613        C614   1.388       .  A
C613        H616   1.082       .  S
C614        C615   1.373       .  A
C615        H617   1.083       .  S
N618        N619   1.324       .  A
N618        C622   1.350       .  A
N619        C620   1.340       .  A
C620        C621   1.377       .  A
C620        H623   1.082       .  S
C621        C622   1.392       .  A
C621        C793   1.482       .  S
C622        H624   1.082       .  S
N625        N626   1.321       .  A
N625        C629   1.349       .  A
N625       Cu633   2.070       .  S
N626        C627   1.340       .  A
N626       Cu632   2.072       .  S
C627        C628   1.382       .  A
C627        H630   1.082       .  S
C628        C629   1.384       .  A
C628        C662   1.468       .  S
C629        H631   1.082       .  S
Cu632       N635   2.071       .  S
Cu633       N643   2.071       .  S
Cu634       N636   2.078       .  S
Cu634       N642   2.079       .  S
N635        N636   1.321       .  A
N635        C639   1.343       .  A
N636        C637   1.349       .  A
C637        C638   1.386       .  A
C637        H640   1.082       .  S
C638        C639   1.383       .  A
C639        H641   1.081       .  S
N642        N643   1.325       .  A
N642        C646   1.345       .  A
N643        C644   1.344       .  A
C644        C645   1.379       .  A
C644        H647   1.082       .  S
C645        C646   1.381       .  A
C646        H648   1.082       .  S
N649        N650   1.317       .  A
N649        C653   1.343       .  A
N649       Cu657   2.057       .  S
N650        C651   1.342       .  A
N650       Cu656   2.043       .  S
C651        C652   1.380       .  A
C651        H654   1.082       .  S
C652        C653   1.384       .  A
C652        C805   1.469       .  S
C653        H655   1.082       .  S
Cu656       N659   2.043       .  S
Cu657       N667   2.058       .  S
Cu658       N660   2.110       .  S
Cu658       N666   2.111       .  S
N659        N660   1.324       .  A
N659        C663   1.336       .  A
N660        C661   1.354       .  A
C661        C662   1.391       .  A
C661        H664   1.082       .  S
C662        C663   1.372       .  A
C663        H665   1.083       .  S
N666        N667   1.325       .  A
N666        C670   1.353       .  A
N667        C668   1.340       .  A
C668        C669   1.373       .  A
C668        H671   1.082       .  S
C669        C670   1.390       .  A
C669        C781   1.475       .  S
C670        H672   1.082       .  S
N673        N674   1.320       .  A
N673        C677   1.349       .  A
N673       Cu681   2.071       .  S
N674        C675   1.340       .  A
N674       Cu680   2.065       .  S
C675        C676   1.381       .  A
C675        H678   1.082       .  S
C676        C677   1.385       .  A
C676        C710   1.465       .  S
C677        H679   1.082       .  S
Cu680       N683   2.065       .  S
Cu681       N691   2.073       .  S
Cu682       N684   2.081       .  S
Cu682       N690   2.082       .  S
N683        N684   1.321       .  A
N683        C687   1.341       .  A
N684        C685   1.349       .  A
C685        C686   1.387       .  A
C685        H688   1.082       .  S
C686        C687   1.381       .  A
C687        H689   1.081       .  S
N690        N691   1.325       .  A
N690        C694   1.346       .  A
N691        C692   1.344       .  A
C692        C693   1.378       .  A
C692        H695   1.082       .  S
C693        C694   1.381       .  A
C694        H696   1.082       .  S
N697        N698   1.317       .  A
N697        C701   1.343       .  A
N697       Cu705   2.060       .  S
N698        C699   1.341       .  A
N698       Cu704   2.043       .  S
C699        C700   1.381       .  A
C699        H702   1.082       .  S
C700        C701   1.385       .  A
C700        C769   1.472       .  S
C701        H703   1.081       .  S
Cu704       N707   2.044       .  S
Cu705       N715   2.061       .  S
Cu706       N708   2.104       .  S
Cu706       N714   2.106       .  S
N707        N708   1.323       .  A
N707        C711   1.337       .  A
N708        C709   1.353       .  A
C709        C710   1.389       .  A
C709        H712   1.082       .  S
C710        C711   1.373       .  A
C711        H713   1.083       .  S
N714        N715   1.325       .  A
N714        C718   1.351       .  A
N715        C716   1.341       .  A
C716        C717   1.375       .  A
C716        H719   1.082       .  S
C717        C718   1.388       .  A
C717        C784   1.474       .  S
C718        H720   1.082       .  S
N721        N722   1.320       .  A
N721        C725   1.350       .  A
N721       Cu729   2.070       .  S
N722        C723   1.338       .  A
N722       Cu728   2.063       .  S
C723        C724   1.380       .  A
C723        H726   1.082       .  S
C724        C725   1.385       .  A
C724        C758   1.466       .  S
C725        H727   1.082       .  S
Cu728       N731   2.063       .  S
Cu729       N739   2.072       .  S
Cu730       N732   2.078   1_565  S
Cu730       N738   2.080       .  S
N731        N732   1.321   1_565  A
N731        C735   1.341   1_565  A
N732        C733   1.349       .  A
C733        C734   1.387       .  A
C733        H736   1.082       .  S
C734        C735   1.381       .  A
C735        H737   1.081       .  S
N738        N739   1.325       .  A
N738        C742   1.345       .  A
N739        C740   1.344       .  A
C740        C741   1.378       .  A
C740        H743   1.082       .  S
C741        C742   1.380       .  A
C742        H744   1.082       .  S
N745        N746   1.316       .  A
N745        C749   1.343       .  A
N745       Cu753   2.056       .  S
N746        C747   1.341   1_565  A
N746       Cu752   2.042       .  S
C747        C748   1.381       .  A
C747        H750   1.082       .  S
C748        C749   1.385   1_545  A
C748        C772   1.471       .  S
C749        H751   1.081       .  S
Cu752       N755   2.043       .  S
Cu753       N763   2.057       .  S
Cu754       N756   2.105       .  S
Cu754       N762   2.106       .  S
N755        N756   1.324       .  A
N755        C759   1.335       .  A
N756        C757   1.354       .  A
C757        C758   1.390       .  A
C757        H760   1.082       .  S
C758        C759   1.372       .  A
C759        H761   1.083       .  S
N762        N763   1.324       .  A
N762        C766   1.352       .  A
N763        C764   1.339       .  A
C764        C765   1.377       .  A
C764        H767   1.082       .  S
C765        C766   1.393       .  A
C765        C796   1.483       .  S
C766        H768   1.082       .  S
C769        C770   1.402       .  A
C769        C774   1.413       .  A
C770        C771   1.396       .  A
C770        H779   1.084       .  S
C771        C772   1.412       .  A
C771        S775   1.803   1_545  S
C772        C773   1.402       .  A
C773        C774   1.396       .  A
C773        H780   1.084       .  S
C774        S776   1.803       .  S
S775        H778   1.407       .  S
S776        H777   1.407       .  S
C781        C782   1.403       .  A
C781        C786   1.413       .  A
C782        C783   1.403       .  A
C782        H791   1.084       .  S
C783        C784   1.411       .  A
C783        S787   1.803       .  S
C784        C785   1.401       .  A
C785        C786   1.400       .  A
C785        H792   1.084       .  S
C786        S788   1.803       .  S
S787        H790   1.406       .  S
S788        H789   1.404       .  S
C793        C794   1.407       .  A
C793        C798   1.412       .  A
C794        C795   1.402       .  A
C794        H803   1.084       .  S
C795        C796   1.412       .  A
C795        S799   1.802       .  S
C796        C797   1.406       .  A
C797        C798   1.398       .  A
C797        H804   1.084       .  S
C798        S800   1.802       .  S
S799        H802   1.406       .  S
S800        H801   1.407       .  S
C805        C806   1.401       .  A
C805        C810   1.412       .  A
C806        C807   1.396       .  A
C806        H815   1.084       .  S
C807        C808   1.413       .  A
C807        S811   1.804       .  S
C808        C809   1.401       .  A
C809        C810   1.396       .  A
C809        H816   1.084       .  S
C810        S812   1.803       .  S
S811        H814   1.407       .  S
S812        H813   1.407       .  S
C817        C818   1.404       .  A
C817        C822   1.415       .  A
C818        C819   1.398       .  A
C818        H827   1.083       .  S
C819        C820   1.414       .  A
C819        S823   1.803       .  S
C820        C821   1.404       .  A
C821        C822   1.399       .  A
C821        H828   1.083       .  S
C822        S824   1.803       .  S
S823        H826   1.407   1_556  S
S824        H825   1.407       .  S
C829        C830   1.406       .  A
C829        C834   1.420       .  A
C830        C831   1.404       .  A
C830        H839   1.083       .  S
C831        C832   1.412       .  A
C831        S835   1.803       .  S
C832        C833   1.398       .  A
C833        C834   1.399       .  A
C833        H840   1.084       .  S
C834        S836   1.803   1_554  S
S835        H838   1.406       .  S
S836        H837   1.407       .  S
C841        C842   1.404       .  A
C841        C846   1.410       .  A
C842        C843   1.406       .  A
C842        H851   1.084       .  S
C843        C844   1.416       .  A
C843        S847   1.801       .  S
C844        C845   1.406       .  A
C845        C846   1.398       .  A
C845        H852   1.084       .  S
C846        S848   1.803       .  S
S847        H850   1.406       .  S
S848        H849   1.404       .  S
C853        C854   1.403       .  A
C853        C858   1.413       .  A
C854        C855   1.398       .  A
C854        H863   1.084       .  S
C855        C856   1.415       .  A
C855        S859   1.803       .  S
C856        C857   1.405       .  A
C857        C858   1.398       .  A
C857        H864   1.083       .  S
C858        S860   1.803       .  S
S859        H862   1.407       .  S
S860        H861   1.407       .  S
C865        C866   1.402       .  A
C865        C870   1.410       .  A
C866        C867   1.397   1_455  A
C866        H875   1.085       .  S
C867        C868   1.413       .  A
C867        S871   1.803       .  S
C868        C869   1.403   1_655  A
C869        C870   1.397       .  A
C869        H876   1.084       .  S
C870        S872   1.803       .  S
S871        H874   1.407       .  S
S872        H873   1.406       .  S
C877        C878   1.407   1_656  A
C877        C882   1.412       .  A
C878        C879   1.400       .  A
C878        H887   1.084       .  S
C879        C880   1.413       .  A
C879        S883   1.802       .  S
C880        C881   1.408   1_455  A
C881        C882   1.400   1_554  A
C881        H888   1.083   1_554  S
C882        S884   1.801       .  S
S883        H886   1.407       .  S
S884        H885   1.407       .  S
C889        C890   1.402       .  A
C889        C894   1.416   1_655  A
C890        C891   1.401   1_655  A
C890        H899   1.084       .  S
C891        C892   1.416       .  A
C891        S895   1.804       .  S
C892        C893   1.401       .  A
C893        C894   1.398       .  A
C893        H900   1.084       .  S
C894        S896   1.804       .  S
S895        H898   1.407       .  S
S896        H897   1.407   1_455  S
C901        C902   1.403       .  A
C901        C906   1.413   1_655  A
C902        C903   1.397       .  A
C902        H911   1.084       .  S
C903        C904   1.414   1_655  A
C903        S907   1.803   1_545  S
C904        C905   1.403       .  A
C905        C906   1.397       .  A
C905        H912   1.084   1_556  S
C906        S908   1.803       .  S
S907        H910   1.407   1_655  S
S908        H909   1.407   1_556  S
C913        C914   1.403       .  A
C913        C918   1.413       .  A
C914        C915   1.398   1_655  A
C914        H923   1.084   1_545  S
C915        C916   1.412       .  A
C915        S919   1.803       .  S
C916        C917   1.403   1_455  A
C917        C918   1.398       .  A
C917        H924   1.084       .  S
C918        S920   1.803       .  S
S919        H922   1.406       .  S
S920        H921   1.407       .  S
C925        C926   1.402       .  A
C925        C930   1.414       .  A
C926        C927   1.397   1_455  A
C926        H935   1.084       .  S
C927        C928   1.412       .  A
C927        S931   1.804       .  S
C928        C929   1.405       .  A
C929        C930   1.406   1_655  A
C929        H936   1.084       .  S
C930        S932   1.804       .  S
S931        H934   1.406       .  S
S932        H933   1.405       .  S
C937        C938   1.406       .  A
C937        C942   1.420   1_655  A
C938        C939   1.403       .  A
C938        H947   1.083       .  S
C939        C940   1.412   1_655  A
C939        S943   1.804       .  S
C940        C941   1.399       .  A
C941        C942   1.404       .  A
C941        H948   1.083       .  S
C942        S944   1.809       .  S
S943        H946   1.406   1_655  S
S944        H945   1.407       .  S
C949        C950   1.400       .  A
C949        C954   1.412       .  A
C950        C951   1.397   1_655  A
C950        H959   1.084       .  S
C951        C952   1.414       .  A
C951        S955   1.804       .  S
C952        C953   1.402       .  A
C953        C954   1.399   1_455  A
C953        H960   1.084       .  S
C954        S956   1.804       .  S
S955        H958   1.407       .  S
S956        H957   1.406       .  S
