geometry optimzed in LAMMPS
_audit_creation_date              2020-11-30 
_audit_creation_method            'lammps2cif' 
_symmetry_space_group_name_H-M    'P1' 
_symmetry_Int_Tables_number       1 
_symmetry_cell_setting            triclinic 
loop_ 
_symmetry_equiv_pos_as_xyz 
  x,y,z 
_cell_length_a                    105.21617741 
_cell_length_b                    61.42244588758775 
_cell_length_c                    56.647392904882594 
_cell_angle_alpha                 90.10140493803434 
_cell_angle_beta                  90.03412045548487 
_cell_angle_gamma                 90.20034470741362 
loop_ 
_atom_site_label 
_atom_site_type_symbol 
_atom_site_fract_x 
_atom_site_fract_y 
_atom_site_fract_z 
_atom_site_charge 
N1          N  0.78610600  0.49443344  0.59137349    -0.27300
N2          N  0.79481327  0.48370982  0.57918354    -0.35200
C3          C  0.79065303  0.48077983  0.55698778     0.01000
C4          C  0.77872458  0.49000017  0.55484035     0.07000
C5          C  0.77610582  0.49838973  0.57710260    -0.06100
H6          H  0.79606266  0.47270117  0.54333389     0.07700
H7          H  0.76777607  0.50747873  0.58231247     0.08900
Cu8        Cu  0.81256254  0.47439089  0.59150558     0.44200
Cu9        Cu  0.78871507  0.50527372  0.62613209     0.42000
Cu10       Cu  0.82075251  0.49526970  0.64729210     0.43900
N11         N  0.83044808  0.46988122  0.60607422    -0.34700
N12         N  0.83347643  0.47812845  0.62684962    -0.29000
C13         C  0.84587830  0.47477516  0.63100256    -0.05100
C14         C  0.85097719  0.46377831  0.61187408     0.07100
C15         C  0.84086798  0.46084600  0.59641888     0.00900
H16         H  0.85086266  0.48056427  0.64650530     0.08600
H17         H  0.84121761  0.45386856  0.57888435     0.07700
N18         N  0.80740253  0.51308942  0.66557708    -0.36200
N19         N  0.79561787  0.51671979  0.65854614    -0.28400
C20         C  0.78989192  0.52967561  0.67460495    -0.03600
C21         C  0.79859422  0.53453916  0.69235204     0.05000
C22         C  0.80953185  0.52360295  0.68594892     0.03100
H23         H  0.78031228  0.53582899  0.67296739     0.08200
H24         H  0.81852072  0.52345281  0.69521704     0.07000
N25         N  0.97995502  0.46803053  0.51959341    -0.27300
N26         N  0.97018389  0.47817106  0.52916344    -0.35200
C27         C  0.97206147  0.49975836  0.52774565     0.01000
C28         C  0.98362012  0.50350644  0.51672326     0.07000
C29         C  0.98835120  0.48291907  0.51182427    -0.06100
H30         H  0.96537842  0.51174061  0.53410199     0.07700
H31         H  0.99728046  0.47891882  0.50346564     0.08900
Cu32       Cu  0.95459629  0.46234412  0.54322624     0.44200
Cu33       Cu  0.98132821  0.43444646  0.51779820     0.42000
Cu34       Cu  0.95323585  0.40411469  0.53686509     0.43900
N35         N  0.93918967  0.44372156  0.55347304    -0.34700
N36         N  0.93836501  0.42245489  0.55025342    -0.29000
C37         C  0.92680158  0.41561368  0.55728728    -0.05100
C38         C  0.92011690  0.43346483  0.56556810     0.07100
C39         C  0.92829171  0.45096886  0.56289051     0.00900
H40         H  0.92352966  0.39891319  0.55645243     0.08600
H41         H  0.92631099  0.46789128  0.56667520     0.07700
N42         N  0.97021003  0.38984922  0.52660382    -0.36200
N43         N  0.98040185  0.40081292  0.51984392    -0.28400
C44         C  0.98998224  0.38677766  0.51622797    -0.03600
C45         C  0.98566256  0.36587733  0.52099854     0.05000
C46         C  0.97304096  0.36855492  0.52745955     0.03100
H47         H  0.99946589  0.39164134  0.51107762     0.08200
H48         H  0.96647534  0.35613458  0.53336200     0.07000
N49         N  0.22504558  0.61763785  0.39271766    -0.27300
N50         N  0.21660856  0.62636904  0.40716074    -0.35200
C51         C  0.22212667  0.63033539  0.42813488     0.01000
C52         C  0.23470675  0.62396845  0.42688449     0.07000
C53         C  0.23623455  0.61605325  0.40411480    -0.06100
H54         H  0.21730208  0.63738410  0.44316020     0.07700
H55         H  0.24473544  0.60902026  0.39660349     0.08900
Cu56       Cu  0.19788643  0.63222024  0.39827733     0.44200
Cu57       Cu  0.22058818  0.60660250  0.35891793     0.42000
Cu58       Cu  0.18680103  0.61109324  0.34354902     0.43900
N59         N  0.17933469  0.63552295  0.38698737    -0.34700
N60         N  0.17507424  0.62749336  0.36685548    -0.29000
C61         C  0.16246131  0.63086724  0.36550637    -0.05100
C62         C  0.15861315  0.64164276  0.38584787     0.07100
C63         C  0.16962736  0.64431942  0.39897377     0.00900
H64         H  0.15653543  0.62535959  0.35106164     0.08600
H65         H  0.17048676  0.65114162  0.41651445     0.07700
N66         N  0.20021076  0.59457544  0.32371449    -0.36200
N67         N  0.21249689  0.59335307  0.32854486    -0.28400
C68         C  0.21812712  0.58057325  0.31224241    -0.03600
C69         C  0.20886633  0.57322711  0.29675358     0.05000
C70         C  0.19767931  0.58245383  0.30457070     0.03100
H71         H  0.22804329  0.57598041  0.31246482     0.08200
H72         H  0.18828192  0.58009265  0.29720643     0.07000
N73         N  0.03060107  0.64241527  0.48355447    -0.27300
N74         N  0.04044869  0.63155493  0.47530518    -0.35200
C75         C  0.03746635  0.61034892  0.47377519     0.01000
C76         C  0.02509271  0.60757339  0.48153478     0.07000
C77         C  0.02103514  0.62833885  0.48759238    -0.06100
H78         H  0.04403232  0.59786273  0.46817421     0.07700
H79         H  0.01187234  0.63295722  0.49459181     0.08900
Cu80       Cu  0.05773095  0.64569929  0.46794765     0.44200
Cu81       Cu  0.03100975  0.67578048  0.48909518     0.42000
Cu82       Cu  0.06226494  0.70204267  0.48288206     0.43900
N83         N  0.07463079  0.66200876  0.46319978    -0.34700
N84         N  0.07663758  0.68246646  0.46944041    -0.29000
C85         C  0.08856624  0.68810759  0.46326979    -0.05100
C86         C  0.09418709  0.67035922  0.45233876     0.07100
C87         C  0.08507438  0.65412778  0.45273224     0.00900
H88         H  0.09260975  0.70419675  0.46551933     0.08600
H89         H  0.08588321  0.63781458  0.44566963     0.07700
N90         N  0.04535165  0.71855604  0.48900921    -0.36200
N91         N  0.03406367  0.70913012  0.49067995    -0.28400
C92         C  0.02506940  0.72461497  0.49165778    -0.03600
C93         C  0.03094448  0.74481334  0.49059491     0.05000
C94         C  0.04381512  0.74027779  0.48905050     0.03100
H95         H  0.01497396  0.72131644  0.49243766     0.08200
H96         H  0.05147928  0.75185999  0.48674136     0.07000
N97         N  0.21807780  0.10152782  0.58333688    -0.27300
N98         N  0.21034984  0.10987100  0.56733435    -0.35200
C99         C  0.21651351  0.11152385  0.54665546     0.01000
C100        C  0.22879116  0.10394607  0.54955939     0.07000
C101        C  0.22945226  0.09779817  0.57314221    -0.06100
H102        H  0.21236176  0.11815607  0.53075903     0.07700
H103        H  0.23754186  0.09087580  0.58217749     0.08900
Cu104      Cu  0.19182697  0.11954402  0.57375020     0.44200
Cu105      Cu  0.21250204  0.09536958  0.61816793     0.42000
Cu106      Cu  0.18084434  0.11622037  0.63286690     0.43900
N107        N  0.17398977  0.13015413  0.58393946    -0.34700
N108        N  0.17007851  0.12977902  0.60607670    -0.29000
C109        C  0.15807083  0.13720217  0.60707358    -0.05100
C110        C  0.15419596  0.14226472  0.58436982     0.07100
C111        C  0.16454585  0.13755936  0.57016520     0.00900
H112        H  0.15233897  0.13760980  0.62291819     0.08600
H113        H  0.16508306  0.13890486  0.55115183     0.07700
N114        N  0.19206097  0.09819475  0.65563876    -0.36200
N115        N  0.20349895  0.09056039  0.65069576    -0.28400
C116        C  0.20756293  0.07858799  0.66915476    -0.03600
C117        C  0.19817354  0.07854315  0.68639214     0.05000
C118        C  0.18853444  0.09121425  0.67710755     0.03100
H119        H  0.21645745  0.06981934  0.66955420     0.08200
H120        H  0.17945730  0.09484215  0.68512488     0.07000
N121        N  0.02064374  0.14494719  0.52158584    -0.27300
N122        N  0.03104415  0.13414036  0.52699262    -0.35200
C123        C  0.02886265  0.11272088  0.52445979     0.01000
C124        C  0.01639517  0.10976733  0.51707414     0.07000
C125        C  0.01150199  0.13069870  0.51540198    -0.06100
H126        H  0.03586924  0.10033978  0.52806809     0.07700
H127        H  0.00195121  0.13535664  0.51057608     0.08900
Cu128      Cu  0.04740327  0.14924921  0.53865328     0.44200
Cu129      Cu  0.01960429  0.17846120  0.52426331     0.42000
Cu130      Cu  0.04720450  0.20758601  0.54918336     0.43900
N131        N  0.06269288  0.16656342  0.55169388    -0.34700
N132        N  0.06268649  0.18763117  0.55654947    -0.29000
C133        C  0.07423786  0.19326893  0.56496887    -0.05100
C134        C  0.08183338  0.17487143  0.56493689     0.07100
C135        C  0.07419231  0.15832725  0.55643798     0.00900
H136        H  0.07704637  0.20964259  0.56979765     0.08600
H137        H  0.07681401  0.14148442  0.55375872     0.07700
N138        N  0.03050199  0.22249892  0.53789691    -0.36200
N139        N  0.02061388  0.21179131  0.52920122    -0.28400
C140        C  0.01131016  0.22596458  0.52425379    -0.03600
C141        C  0.01548772  0.24668544  0.52993783     0.05000
C142        C  0.02773518  0.24388910  0.53845608     0.03100
H143        H  0.00217451  0.22142327  0.51695308     0.08200
H144        H  0.03406917  0.25638707  0.54509923     0.07000
N145        N  0.79363588  0.98749546  0.36920630    -0.27300
N146        N  0.80127640  0.98221097  0.38673239    -0.35200
C147        C  0.79441339  0.97939500  0.40641972     0.01000
C148        C  0.78172834  0.98317836  0.40120288     0.07000
C149        C  0.78162459  0.98827096  0.37731214    -0.06100
H150        H  0.79849091  0.97484041  0.42320353     0.07700
H151        H  0.77349149  0.99241266  0.36656859     0.08900
Cu152      Cu  0.82066313  0.97888331  0.38325256     0.44200
Cu153      Cu  0.80032472  0.99311258  0.33540917     0.42000
Cu154      Cu  0.83415930  0.98031635  0.32518050     0.43900
N155        N  0.83969258  0.97401353  0.37662883    -0.34700
N156        N  0.84472269  0.97335209  0.35527385    -0.29000
C157        C  0.85725894  0.96926602  0.35726415    -0.05100
C158        C  0.86018143  0.96764154  0.38106213     0.07100
C159        C  0.84882668  0.97077529  0.39275571     0.00900
H160        H  0.86381356  0.96833810  0.34259135     0.08600
H161        H  0.84728591  0.97061516  0.41163833     0.07700
N162        N  0.82179596  0.99266465  0.29986074    -0.36200
N163        N  0.80974237  0.99756026  0.30368829    -0.28400
C164        C  0.80490854  0.00692736  0.28425206    -0.03600
C165        C  0.81435285  0.00812766  0.26723182     0.05000
C166        C  0.82491602  0.99879206  0.27784616     0.03100
H167        H  0.79531877  0.01308554  0.28309301     0.08200
H168        H  0.83435600  0.99717170  0.27055983     0.07000
N169        N  0.94597431  0.91819536  0.44383504    -0.27300
N170        N  0.94523067  0.93797065  0.45289455    -0.35200
C171        C  0.93454768  0.94754831  0.44528287     0.01000
C172        C  0.92816643  0.93314251  0.43061369     0.07000
C173        C  0.93573157  0.91466739  0.43006256    -0.06100
H174        H  0.93180934  0.96399647  0.44978130     0.07700
H175        H  0.93388910  0.89968216  0.42058711     0.08900
Cu176      Cu  0.95907031  0.95168158  0.47399145     0.44200
Cu177      Cu  0.96097256  0.89732194  0.45125559     0.42000
Cu178      Cu  0.98728635  0.92076976  0.48570967     0.43900
N179        N  0.97509625  0.96472224  0.48947454    -0.34700
N180        N  0.98564039  0.95372555  0.49339165    -0.29000
C181        C  0.99467782  0.96764185  0.50098335    -0.05100
C182        C  0.98956199  0.98847787  0.50171763     0.07100
C183        C  0.97707732  0.98581425  0.49442073     0.00900
H184        H  0.00439374  0.96300599  0.50455029     0.08600
H185        H  0.97000077  0.99829640  0.49184928     0.07700
N186        N  0.98606541  0.88828460  0.47558602    -0.36200
N187        N  0.97661243  0.87983017  0.46315527    -0.28400
C188        C  0.97863687  0.85836186  0.46039568    -0.03600
C189        C  0.98991842  0.85292414  0.47162320     0.05000
C190        C  0.99434106  0.87242505  0.48099760     0.03100
H191        H  0.97225648  0.84756106  0.45100706     0.08200
H192        H  0.00280440  0.87496295  0.49149195     0.07000
N193        N  0.78490756  0.08381578  0.04060879    -0.27300
N194        N  0.79303657  0.09136192  0.02482652    -0.35200
C195        C  0.78733597  0.09221737  0.00364616     0.01000
C196        C  0.77493026  0.08505271  0.00612989     0.07000
C197        C  0.77374475  0.07977139  0.02984512    -0.06100
H198        H  0.79166927  0.09904248  0.98799523     0.07700
H199        H  0.76528227  0.07419176  0.03885298     0.08900
Cu200      Cu  0.81068433  0.10389702  0.03308996     0.44200
Cu201      Cu  0.78909782  0.08155059  0.07637499     0.42000
Cu202      Cu  0.81818493  0.10997554  0.09419236     0.43900
N203        N  0.82653515  0.12036836  0.04506601    -0.34700
N204        N  0.82915203  0.12337613  0.06762928    -0.29000
C205        C  0.84027409  0.13410781  0.06953488    -0.05100
C206        C  0.84490696  0.13787432  0.04700151     0.07100
C207        C  0.83589315  0.12898044  0.03196615     0.00900
H208        H  0.84499159  0.13765876  0.08607941     0.08600
H209        H  0.83623372  0.12822938  0.01290045     0.07700
N210        N  0.80712940  0.09123248  0.11653630    -0.36200
N211        N  0.79648179  0.08117704  0.11041285    -0.28400
C212        C  0.79226043  0.06946308  0.12891151    -0.03600
C213        C  0.80078021  0.07206022  0.14733194     0.05000
C214        C  0.81006871  0.08592217  0.13884894     0.03100
H215        H  0.78404085  0.05883642  0.12850481     0.08200
H216        H  0.81857200  0.09123730  0.14796952     0.07000
N217        N  0.98015319  0.15755038  0.00276782    -0.27300
N218        N  0.96906529  0.14742274  0.00247408    -0.35200
C219        C  0.97080751  0.12615008  0.99860221     0.01000
C220        C  0.98367809  0.12224919  0.99623845     0.07000
C221        C  0.98936049  0.14265244  0.99901820    -0.06100
H222        H  0.96315397  0.11437163  0.99842380     0.07700
H223        H  0.99940947  0.14638572  0.99861543     0.08900
Cu224      Cu  0.95186295  0.16149904  0.00974415     0.44200
Cu225      Cu  0.98146567  0.19110539  0.00938350     0.42000
Cu226      Cu  0.95094062  0.21514106  0.03039645     0.43900
N227        N  0.93559585  0.17506292  0.02308722    -0.34700
N228        N  0.93517649  0.19492864  0.03190156    -0.29000
C229        C  0.92333925  0.19879255  0.03992091    -0.05100
C230        C  0.91600232  0.18042290  0.03555818     0.07100
C231        C  0.92412126  0.16572575  0.02495384     0.00900
H232        H  0.92022895  0.21399416  0.04762707     0.08600
H233        H  0.92189570  0.14936669  0.01912295     0.07700
N234        N  0.96755284  0.23242748  0.02413300    -0.36200
N235        N  0.97848768  0.22420463  0.01681993    -0.28400
C236        C  0.98698683  0.24059032  0.01483655    -0.03600
C237        C  0.98110333  0.26001199  0.02105900     0.05000
C238        C  0.96879453  0.25405553  0.02680494     0.03100
H239        H  0.99669753  0.23848811  0.00904268     0.08200
H240        H  0.96123973  0.26458063  0.03282333     0.07000
N241        N  0.22198518  0.97346203  0.90589069    -0.27300
N242        N  0.21393695  0.96178117  0.91859167    -0.35200
C243        C  0.21875090  0.95878593  0.94027055     0.01000
C244        C  0.23046342  0.96899040  0.94149851     0.07000
C245        C  0.23226047  0.97804817  0.91928036    -0.06100
H246        H  0.21399393  0.94982292  0.95412987     0.07700
H247        H  0.24025149  0.98779215  0.91349268     0.08900
Cu248      Cu  0.19643222  0.95091043  0.90705236     0.44200
Cu249      Cu  0.21793025  0.98364388  0.87151466     0.42000
Cu250      Cu  0.18648826  0.96553169  0.84977653     0.43900
N251        N  0.17867626  0.94302686  0.89412604    -0.34700
N252        N  0.17493032  0.94796738  0.87255560    -0.29000
C253        C  0.16252842  0.94284056  0.87027010    -0.05100
C254        C  0.15830110  0.93448606  0.89158205     0.07100
C255        C  0.16879380  0.93491836  0.90627536     0.00900
H256        H  0.15675513  0.94683225  0.85507960     0.08600
H257        H  0.16900715  0.93106995  0.92490369     0.07700
N258        N  0.19875233  0.98612201  0.83166646    -0.36200
N259        N  0.21008871  0.99262637  0.83904258    -0.28400
C260        C  0.21501615  0.00642913  0.82292360    -0.03600
C261        C  0.20629592  0.00888594  0.80471166     0.05000
C262        C  0.19615463  0.99568298  0.81094038     0.03100
H263        H  0.22409904  0.01457379  0.82471197     0.08200
H264        H  0.18742735  0.99319010  0.80119333     0.07000
N265        N  0.02698031  0.97696979  0.98077131    -0.27300
N266        N  0.03823488  0.98626791  0.97805801    -0.35200
C267        C  0.03705678  0.00793908  0.98025340     0.01000
C268        C  0.02442774  0.01276059  0.98453044     0.07000
C269        C  0.01830536  0.99265269  0.98470188    -0.06100
H270        H  0.04484393  0.01932936  0.97829426     0.07700
H271        H  0.00829684  0.98957373  0.98754441     0.08900
Cu272      Cu  0.05477309  0.96978884  0.97014188     0.44200
Cu273      Cu  0.02407615  0.94331173  0.97864650     0.42000
Cu274      Cu  0.05224787  0.91284039  0.96007121     0.43900
N275        N  0.06982202  0.95116648  0.95846529    -0.34700
N276        N  0.06883415  0.93016826  0.95375873    -0.29000
C277        C  0.08006347  0.92292532  0.94553616    -0.05100
C278        C  0.08854203  0.94023029  0.94539946     0.07100
C279        C  0.08171024  0.95784800  0.95373221     0.00900
H280        H  0.08199579  0.90622883  0.94064227     0.08600
H281        H  0.08508732  0.97438252  0.95597283     0.07700
N282        N  0.03491788  0.89867848  0.96846412    -0.36200
N283        N  0.02463362  0.90942279  0.97501931    -0.28400
C284        C  0.01511031  0.89500212  0.97834861    -0.03600
C285        C  0.01963416  0.87415982  0.97373186     0.05000
C286        C  0.03225048  0.87729858  0.96755334     0.03100
H287        H  0.00558987  0.89945621  0.98361674     0.08200
H288        H  0.03901095  0.86505406  0.96214906     0.07000
N289        N  0.22459806  0.47525192  0.07158801    -0.27300
N290        N  0.21552103  0.46675010  0.05821807    -0.35200
C291        C  0.22024663  0.46262551  0.03663734     0.01000
C292        C  0.23292535  0.46864681  0.03638118     0.07000
C293        C  0.23536508  0.47650322  0.05887121    -0.06100
H294        H  0.21483963  0.45556578  0.02227241     0.07700
H295        H  0.24424496  0.48307665  0.06542445     0.08900
Cu296      Cu  0.19697654  0.46109349  0.06897220     0.44200
Cu297      Cu  0.22215606  0.48581959  0.10621760     0.42000
Cu298      Cu  0.19005985  0.47866001  0.12711191     0.43900
N299        N  0.17891098  0.45918691  0.08334601    -0.34700
N300        N  0.17633221  0.46623781  0.10482727    -0.29000
C301        C  0.16379345  0.46429084  0.10883271    -0.05100
C302        C  0.15818645  0.45538110  0.08890527     0.07100
C303        C  0.16808501  0.45229430  0.07311217     0.00900
H304        H  0.15913673  0.46904883  0.12505303     0.08600
H305        H  0.16742657  0.44616626  0.05523629     0.07700
N306        N  0.20451154  0.49200856  0.14707546    -0.36200
N307        N  0.21628795  0.49519723  0.13978102    -0.28400
C308        C  0.22288543  0.50527491  0.15711175    -0.03600
C309        C  0.21482185  0.50833640  0.17626191     0.05000
C310        C  0.20327407  0.49973293  0.16904777     0.03100
H311        H  0.23275278  0.51011153  0.15577220     0.08200
H312        H  0.19439791  0.49969601  0.17865173     0.07000
N313        N  0.06459581  0.43520215  0.06316510    -0.27300
N314        N  0.06247463  0.45572905  0.06880414    -0.35200
C315        C  0.07325633  0.46472929  0.07703498     0.01000
C316        C  0.08271570  0.44913510  0.07644557     0.07000
C317        C  0.07686236  0.43057407  0.06753146    -0.06100
H318        H  0.07424500  0.48166124  0.08201630     0.07700
H319        H  0.08119791  0.41492146  0.06422719     0.08900
Cu320      Cu  0.04549149  0.47111553  0.06208151     0.44200
Cu321      Cu  0.05052277  0.41513022  0.04929788     0.42000
Cu322      Cu  0.02026076  0.44062889  0.03334558     0.43900
N323        N  0.02964825  0.48524049  0.04728336    -0.34700
N324        N  0.02053699  0.47449306  0.03615364    -0.29000
C325        C  0.01255540  0.48900359  0.02631810    -0.05100
C326        C  0.01690041  0.50987244  0.03153648     0.07100
C327        C  0.02774141  0.50669945  0.04491997     0.00900
H328        H  0.00441360  0.48461995  0.01564091     0.08600
H329        H  0.03424239  0.51900684  0.05140173     0.07700
N330        N  0.02344932  0.40712112  0.03285758    -0.36200
N331        N  0.03447051  0.39812993  0.03828958    -0.28400
C332        C  0.03334433  0.37637570  0.03684264    -0.03600
C333        C  0.02099958  0.37118871  0.03024941     0.05000
C334        C  0.01501199  0.39120796  0.02786664     0.03100
H335        H  0.04093076  0.36521104  0.04105694     0.08200
H336        H  0.00521365  0.39409755  0.02307655     0.07000
N337        N  0.79297887  0.63932671  0.90981584    -0.27300
N338        N  0.80107453  0.65103204  0.92250009    -0.35200
C339        C  0.79690948  0.65227718  0.94484402     0.01000
C340        C  0.78557010  0.64099813  0.94647936     0.07000
C341        C  0.78333349  0.63303384  0.92389656    -0.06100
H342        H  0.80171265  0.66116490  0.95875187     0.07700
H343        H  0.77535575  0.62321555  0.91814019     0.08900
Cu344      Cu  0.81745392  0.66549777  0.91001483     0.44200
Cu345      Cu  0.79544345  0.63206538  0.87402011     0.42000
Cu346      Cu  0.82343957  0.65817424  0.84949103     0.43900
N347        N  0.83395975  0.67639647  0.89436375    -0.34700
N348        N  0.83630170  0.67316434  0.87175678    -0.29000
C349        C  0.84840620  0.67872895  0.86718548    -0.05100
C350        C  0.85390451  0.68605477  0.88794571     0.07100
C351        C  0.84444040  0.68446924  0.90481289     0.00900
H352        H  0.85303417  0.67651355  0.85030474     0.08600
H353        H  0.84541283  0.68722446  0.92359989     0.07700
N354        N  0.81143437  0.63809796  0.83050759    -0.36200
N355        N  0.80137573  0.62787986  0.83908858    -0.28400
C356        C  0.79701950  0.61380172  0.82258385    -0.03600
C357        C  0.80484445  0.61517556  0.80286959     0.05000
C358        C  0.81375289  0.63092738  0.80859812     0.03100
H359        H  0.78932149  0.60236945  0.82535198     0.08200
H360        H  0.82182695  0.63603024  0.79814837     0.07000
N361        N  0.94676220  0.69639541  0.92331565    -0.27300
N362        N  0.94762383  0.67523998  0.91938779    -0.35200
C363        C  0.93684481  0.66817688  0.90920255     0.01000
C364        C  0.92871811  0.68568082  0.90680521     0.07000
C365        C  0.93531594  0.70333567  0.91595721    -0.06100
H366        H  0.93480295  0.65130272  0.90514866     0.07700
H367        H  0.93197246  0.71990492  0.91759329     0.08900
Cu368      Cu  0.96246742  0.65624353  0.93118903     0.44200
Cu369      Cu  0.96104110  0.71447778  0.93932987     0.42000
Cu370      Cu  0.98767907  0.68380318  0.96271370     0.43900
N371        N  0.97648508  0.64010813  0.94965623    -0.34700
N372        N  0.98559531  0.65006627  0.96160750    -0.29000
C373        C  0.99256853  0.63499764  0.97290617    -0.05100
C374        C  0.98760152  0.61452325  0.96782032     0.07100
C375        C  0.97740574  0.61851538  0.95296678     0.00900
H376        H  0.00059585  0.63878617  0.98412627     0.08600
H377        H  0.97083160  0.60672216  0.94566381     0.07700
N378        N  0.98707726  0.71770001  0.96150239    -0.36200
N379        N  0.97722726  0.72876703  0.95348442    -0.28400
C380        C  0.97981615  0.75018625  0.95482189    -0.03600
C381        C  0.99193331  0.75286867  0.96399805     0.05000
C382        C  0.99624325  0.73184991  0.96799220     0.03100
H383        H  0.97347555  0.76282163  0.94875337     0.08200
H384        H  0.00538959  0.72711917  0.97499429     0.07000
N385        N  0.28191958  0.46127123  0.88188568    -0.27300
N386        N  0.28959760  0.45048437  0.89615577    -0.35200
C387        C  0.28400684  0.44837748  0.91732391     0.01000
C388        C  0.27221817  0.45827735  0.91646792     0.07000
C389        C  0.27118125  0.46615689  0.89363526    -0.06100
H390        H  0.28836622  0.44052561  0.93234583     0.07700
H391        H  0.26345258  0.47558903  0.88636685     0.08900
Cu392      Cu  0.30784302  0.44052209  0.88777349     0.44200
Cu393      Cu  0.28680323  0.47086060  0.84792551     0.42000
Cu394      Cu  0.31844044  0.45511517  0.83029935     0.43900
N395        N  0.32640688  0.43607081  0.87669186    -0.34700
N396        N  0.33022847  0.44170625  0.85535837    -0.29000
C397        C  0.34293447  0.44038301  0.85426425    -0.05100
C398        C  0.34737820  0.43353214  0.87597513     0.07100
C399        C  0.33662435  0.43074525  0.88975787     0.00900
H400        H  0.34855700  0.44536689  0.83921613     0.08600
H401        H  0.33633540  0.42700981  0.90840840     0.07700
N402        N  0.30657199  0.47381600  0.80977566    -0.36200
N403        N  0.29505560  0.47994551  0.81612734    -0.28400
C404        C  0.29040480  0.49346868  0.79960269    -0.03600
C405        C  0.29947892  0.49602931  0.78199628     0.05000
C406        C  0.30958131  0.48319907  0.78915780     0.03100
H407        H  0.28125598  0.50134528  0.80081799     0.08200
H408        H  0.31863721  0.48110117  0.78047037     0.07000
N409        N  0.48153239  0.44465581  0.95250337    -0.27300
N410        N  0.47166930  0.45681477  0.94684126    -0.35200
C411        C  0.47484152  0.47790024  0.94967032     0.01000
C412        C  0.48733101  0.47907221  0.95758328     0.07000
C413        C  0.49121790  0.45756835  0.95904410    -0.06100
H414        H  0.46834693  0.49124926  0.94688090     0.07700
H415        H  0.50030367  0.45148671  0.96493965     0.08900
Cu416      Cu  0.45409936  0.44391925  0.93758211     0.44200
Cu417      Cu  0.48142300  0.41106113  0.95295781     0.42000
Cu418      Cu  0.45170818  0.38472241  0.94190889     0.43900
N419        N  0.43739242  0.42638580  0.93275066    -0.34700
N420        N  0.43652234  0.40501006  0.93503553    -0.29000
C421        C  0.42439518  0.39884192  0.93167322    -0.05100
C422        C  0.41726912  0.41716803  0.92684142     0.07100
C423        C  0.42582990  0.43435129  0.92760499     0.00900
H424        H  0.42109729  0.38214638  0.93212931     0.08600
H425        H  0.42381022  0.45141332  0.92482537     0.07700
N426        N  0.46823799  0.36789413  0.94906180    -0.36200
N427        N  0.47919731  0.37767037  0.95322575    -0.28400
C428        C  0.48813374  0.36255517  0.95718160    -0.03600
C429        C  0.48254514  0.34212454  0.95536408     0.05000
C430        C  0.46988187  0.34623991  0.95019474     0.03100
H431        H  0.49795563  0.36633044  0.96108627     0.08200
H432        H  0.46239523  0.33447014  0.94713114     0.07000
N433        N  0.72463169  0.62208547  0.08199420    -0.27300
N434        N  0.71543769  0.63057979  0.06904066    -0.35200
C435        C  0.72007452  0.63625369  0.04789612     0.01000
C436        C  0.73282980  0.63111054  0.04719130     0.07000
C437        C  0.73546065  0.62234072  0.06924291    -0.06100
H438        H  0.71434461  0.64261623  0.03364742     0.07700
H439        H  0.74433444  0.61522494  0.07495153     0.08900
Cu440      Cu  0.69636022  0.63034497  0.07715478     0.44200
Cu441      Cu  0.72138382  0.60700392  0.11454198     0.42000
Cu442      Cu  0.68800296  0.59014180  0.11779777     0.43900
N443        N  0.67775718  0.62079021  0.08187155    -0.34700
N444        N  0.67465671  0.60481553  0.09629621    -0.29000
C445        C  0.66205724  0.60128909  0.09494806    -0.05100
C446        C  0.65697240  0.61590073  0.07888874     0.07100
C447        C  0.66725245  0.62800561  0.07094951     0.00900
H448        H  0.65696955  0.58932478  0.10530447     0.08600
H449        H  0.66717606  0.64086749  0.05793315     0.07700
N450        N  0.70184070  0.58158294  0.14200832    -0.36200
N451        N  0.71378341  0.58842159  0.14208478    -0.28400
C452        C  0.71962902  0.58040958  0.16146353    -0.03600
C453        C  0.71093695  0.56770902  0.17376970     0.05000
C454        C  0.69982682  0.56892165  0.16087563     0.03100
H455        H  0.72951714  0.58309017  0.16587505     0.08200
H456        H  0.69081156  0.56133883  0.16507352     0.07000
N457        N  0.52220095  0.62648586  0.00837211    -0.27300
N458        N  0.53276110  0.61494821  0.00797086    -0.35200
C459        C  0.53019588  0.59508158  0.99927436     0.01000
C460        C  0.51735805  0.59398881  0.99389630     0.07000
C461        C  0.51260057  0.61428131  0.99985450    -0.06100
H462        H  0.53722858  0.58245491  0.99700840     0.07700
H463        H  0.50285815  0.61971030  0.99855418     0.08900
Cu464      Cu  0.55018711  0.62662388  0.01913584     0.44200
Cu465      Cu  0.52152268  0.65821907  0.02042554     0.42000
Cu466      Cu  0.55201147  0.68382142  0.03369705     0.43900
N467        N  0.56674611  0.64198528  0.02962505    -0.34700
N468        N  0.56758385  0.66303431  0.03426120    -0.29000
C469        C  0.57965243  0.66780253  0.04028840    -0.05100
C470        C  0.58670747  0.64877210  0.03962143     0.07100
C471        C  0.57817668  0.63275545  0.03278701     0.00900
H472        H  0.58294389  0.68383185  0.04541475     0.08600
H473        H  0.58010959  0.61563685  0.03015282     0.07700
N474        N  0.53464130  0.69991468  0.03476477    -0.36200
N475        N  0.52360213  0.69039317  0.03045050    -0.28400
C476        C  0.51426237  0.70510149  0.03266959    -0.03600
C477        C  0.51960894  0.72503983  0.03863056     0.05000
C478        C  0.53259441  0.72101684  0.03981172     0.03100
H479        H  0.50433431  0.70143524  0.02971020     0.08200
H480        H  0.54009487  0.73250436  0.04383845     0.07000
N481        N  0.71787568  0.10126814  0.86212235    -0.27300
N482        N  0.71100904  0.11030247  0.87896717    -0.35200
C483        C  0.71747589  0.10963347  0.89934769     0.01000
C484        C  0.72904715  0.09967676  0.89525345     0.07000
C485        C  0.72899728  0.09463702  0.87136268    -0.06100
H486        H  0.71398131  0.11611157  0.91586924     0.07700
H487        H  0.73637148  0.08645350  0.86148495     0.08900
Cu488      Cu  0.69308112  0.12281661  0.87389470     0.44200
Cu489      Cu  0.71130267  0.09829287  0.82779281     0.42000
Cu490      Cu  0.67996098  0.12314284  0.81578026     0.43900
N491        N  0.67495190  0.13342010  0.86660399    -0.34700
N492        N  0.67005300  0.13419259  0.84515711    -0.29000
C493        C  0.65785946  0.14067542  0.84672987    -0.05100
C494        C  0.65497239  0.14383806  0.87038808     0.07100
C495        C  0.66606727  0.13912270  0.88239570     0.00900
H496        H  0.65139398  0.14177663  0.83192733     0.08600
H497        H  0.66752524  0.13926602  0.90130050     0.07700
N498        N  0.69080095  0.10616433  0.79124705    -0.36200
N499        N  0.70192737  0.09704975  0.79563493    -0.28400
C500        C  0.70563786  0.08573184  0.77652806    -0.03600
C501        C  0.69639780  0.08766200  0.75923028     0.05000
C502        C  0.68716596  0.10084340  0.76923373     0.03100
H503        H  0.71416353  0.07597078  0.77581817     0.08200
H504        H  0.67822714  0.10570972  0.76147742     0.07000
N505        N  0.52890330  0.13617788  0.98954948    -0.27300
N506        N  0.53961434  0.12502862  0.98931819    -0.35200
C507        C  0.53713241  0.10425188  0.99504369     0.01000
C508        C  0.52419270  0.10205700  0.99905430     0.07000
C509        C  0.51929117  0.12273900  0.99542714    -0.06100
H510        H  0.54422876  0.09156812  0.99528805     0.07700
H511        H  0.50945875  0.12768856  0.99658810     0.08900
Cu512      Cu  0.55697854  0.13761349  0.97878065     0.44200
Cu513      Cu  0.52787450  0.16881840  0.98057705     0.42000
Cu514      Cu  0.55705391  0.19252756  0.95722769     0.43900
N515        N  0.57247398  0.15174901  0.96223887    -0.34700
N516        N  0.57233574  0.17165045  0.95343376    -0.29000
C517        C  0.58331230  0.17530356  0.94191099    -0.05100
C518        C  0.59076849  0.15685721  0.94378111     0.07100
C519        C  0.58360233  0.14228541  0.95685686     0.00900
H520        H  0.58567111  0.19027122  0.93285040     0.08600
H521        H  0.58608361  0.12572686  0.96137067     0.07700
N522        N  0.54047678  0.20986658  0.96287935    -0.36200
N523        N  0.52982781  0.20120332  0.97098990    -0.28400
C524        C  0.52090409  0.21676120  0.97226821    -0.03600
C525        C  0.52619213  0.23624077  0.96471209     0.05000
C526        C  0.53863570  0.23119003  0.95892705     0.03100
H527        H  0.51133572  0.21405646  0.97860592     0.08200
H528        H  0.54583170  0.24209055  0.95208305     0.07000
N529        N  0.29208750  0.97247743  0.07725162    -0.27300
N530        N  0.30141167  0.96600345  0.06331002    -0.35200
C531        C  0.29715983  0.96486648  0.04098784     0.01000
C532        C  0.28448802  0.97082391  0.04071031     0.07000
C533        C  0.28157746  0.97545583  0.06408813    -0.06100
H534        H  0.30288816  0.95979491  0.02612736     0.07700
H535        H  0.27258210  0.98107078  0.07098826     0.08900
Cu536      Cu  0.31945015  0.95835690  0.07488302     0.44200
Cu537      Cu  0.29446511  0.97837735  0.11322863     0.42000
Cu538      Cu  0.32527095  0.96304597  0.13699719     0.43900
N539        N  0.33619083  0.94880048  0.09068279    -0.34700
N540        N  0.33818896  0.94963822  0.11368735    -0.29000
C541        C  0.34999539  0.94248178  0.11830571    -0.05100
C542        C  0.35571304  0.93711269  0.09710113     0.07100
C543        C  0.34668302  0.94132780  0.07997324     0.00900
H544        H  0.35431806  0.94235160  0.13563977     0.08600
H545        H  0.34771981  0.93949339  0.06107282     0.07700
N546        N  0.31190595  0.98089227  0.15546964    -0.36200
N547        N  0.30065397  0.98646470  0.14709567    -0.28400
C548        C  0.29483292  0.99935043  0.16300957    -0.03600
C549        C  0.30285816  0.00217836  0.18227378     0.05000
C550        C  0.31356869  0.99009448  0.17676896     0.03100
H551        H  0.28566651  0.00683597  0.16024012     0.08200
H552        H  0.32212742  0.98839191  0.18716182     0.07000
N553        N  0.49294721  0.94917091  0.03947435    -0.27300
N554        N  0.48212719  0.95992435  0.03878561    -0.35200
C555        C  0.48442728  0.98089774  0.03373619     0.01000
C556        C  0.49741272  0.98367713  0.03102040     0.07000
C557        C  0.50251446  0.96310935  0.03482391    -0.06100
H558        H  0.47711676  0.99316695  0.03250541     0.07700
H559        H  0.51241342  0.95849056  0.03416834     0.08900
Cu560      Cu  0.46480703  0.94568584  0.04521488     0.44200
Cu561      Cu  0.49364858  0.91599951  0.04664661     0.42000
Cu562      Cu  0.46350210  0.88958276  0.06367661     0.43900
N563        N  0.44832827  0.92981631  0.05424889    -0.34700
N564        N  0.44771715  0.90962392  0.06217034    -0.29000
C565        C  0.43552003  0.90480416  0.06718513    -0.05100
C566        C  0.42819169  0.92280933  0.06175056     0.07100
C567        C  0.43662879  0.93830197  0.05362772     0.00900
H568        H  0.43221608  0.88923971  0.07371088     0.08600
H569        H  0.43447569  0.95470723  0.04800443     0.07700
N570        N  0.48050354  0.87325955  0.05853933    -0.36200
N571        N  0.49132811  0.88279581  0.05257050    -0.28400
C572        C  0.50029864  0.86746369  0.04994842    -0.03600
C573        C  0.49489162  0.84726770  0.05432625     0.05000
C574        C  0.48230593  0.85160813  0.05967304     0.03100
H575        H  0.50997732  0.87080521  0.04460859     0.08200
H576        H  0.47495710  0.83993581  0.06403709     0.07000
N577        N  0.28819469  0.61808009  0.57637211    -0.27300
N578        N  0.29573904  0.62990494  0.56276535    -0.35200
C579        C  0.28969728  0.63437843  0.54245402     0.01000
C580        C  0.27771610  0.62504932  0.54320514     0.07000
C581        C  0.27707372  0.61493243  0.56505934    -0.06100
H582        H  0.29384046  0.64353004  0.52807273     0.07700
H583        H  0.26930711  0.60521120  0.57185146     0.08900
Cu584      Cu  0.31428899  0.63840215  0.57091397     0.44200
Cu585      Cu  0.29380363  0.60479362  0.60860506     0.42000
Cu586      Cu  0.32696261  0.61538652  0.62303118     0.43900
N587        N  0.33317488  0.64177122  0.58048102    -0.34700
N588        N  0.33789318  0.63294327  0.59978529    -0.29000
C589        C  0.35055824  0.63573497  0.60005993    -0.05100
C590        C  0.35400734  0.64698571  0.57988475     0.07100
C591        C  0.34270552  0.65061076  0.56793657     0.00900
H592        H  0.35678284  0.62941139  0.61359478     0.08600
H593        H  0.34154721  0.65798189  0.55074697     0.07700
N594        N  0.31527271  0.59525320  0.64221638    -0.36200
N595        N  0.30316525  0.59133342  0.63756290    -0.28400
C596        C  0.29875596  0.57675540  0.65336188    -0.03600
C597        C  0.30865898  0.57116165  0.66835838     0.05000
C598        C  0.31892986  0.58327075  0.66072898     0.03100
H599        H  0.28919749  0.57021175  0.65343467     0.08200
H600        H  0.32843983  0.58337126  0.66799859     0.07000
N601        N  0.47926327  0.65997351  0.46711863    -0.27300
N602        N  0.47055446  0.64844439  0.47832840    -0.35200
C603        C  0.47432550  0.62764680  0.47961322     0.01000
C604        C  0.48604983  0.62580115  0.46866086     0.07000
C605        C  0.48889018  0.64673664  0.46098257    -0.06100
H606        H  0.46888838  0.61493429  0.48813488     0.07700
H607        H  0.49726272  0.65201331  0.45149459     0.08900
Cu608      Cu  0.45385307  0.66117633  0.49127233     0.44200
Cu609      Cu  0.47742395  0.69320142  0.46137055     0.42000
Cu610      Cu  0.44771342  0.71807092  0.48155186     0.43900
N611        N  0.43727508  0.67629289  0.50140270    -0.34700
N612        N  0.43474882  0.69699665  0.49729647    -0.29000
C613        C  0.42303183  0.70144844  0.50547375    -0.05100
C614        C  0.41803286  0.68263872  0.51537398     0.07100
C615        C  0.42735065  0.66705048  0.51244170     0.00900
H616        H  0.41857781  0.71727212  0.50456665     0.08600
H617        H  0.42689480  0.65009682  0.51752566     0.07700
N618        N  0.46311347  0.73545745  0.46820162    -0.36200
N619        N  0.47379224  0.72642410  0.46085467    -0.28400
C620        C  0.48211897  0.74221079  0.45517622    -0.03600
C621        C  0.47650613  0.76230149  0.45923387     0.05000
C622        C  0.46439821  0.75724630  0.46739869     0.03100
H623        H  0.49172450  0.73909156  0.44937025     0.08200
H624        H  0.45719013  0.76847006  0.47338133     0.07000
N625        N  0.72116311  0.49586286  0.41255822    -0.27300
N626        N  0.71200639  0.48651223  0.42499481    -0.35200
C627        C  0.71576300  0.48474838  0.44758850     0.01000
C628        C  0.72792862  0.49315258  0.44963900     0.07000
C629        C  0.73108510  0.49995282  0.42701457    -0.06100
H630        H  0.71006477  0.47760082  0.46146871     0.07700
H631        H  0.73984330  0.50771829  0.42155189     0.08900
Cu632      Cu  0.69461322  0.47631651  0.41160084     0.44200
Cu633      Cu  0.71949505  0.50365220  0.37668626     0.42000
Cu634      Cu  0.68916958  0.48733289  0.35107097     0.43900
N635        N  0.67741377  0.46964691  0.39518510    -0.34700
N636        N  0.67533662  0.47424522  0.37276472    -0.29000
C637        C  0.66301423  0.47068506  0.36774532    -0.05100
C638        C  0.65702396  0.46331743  0.38800396     0.07100
C639        C  0.66648983  0.46274711  0.40502829     0.00900
H640        H  0.65867136  0.47398494  0.35081881     0.08600
H641        H  0.66534929  0.45901514  0.42356482     0.07700
N642        N  0.70345219  0.50291245  0.33250878    -0.36200
N643        N  0.71437755  0.50963281  0.34154799    -0.28400
C644        C  0.72089684  0.52042217  0.32464756    -0.03600
C645        C  0.71375399  0.52014338  0.30399832     0.05000
C646        C  0.70278392  0.50890534  0.30979349     0.03100
H647        H  0.73013214  0.52785950  0.32718680     0.08200
H648        H  0.69465825  0.50587882  0.29852944     0.07000
N649        N  0.52289128  0.47242498  0.46181592    -0.27300
N650        N  0.53279021  0.48364139  0.45413097    -0.35200
C651        C  0.52975261  0.50489429  0.45353156     0.01000
C652        C  0.51729356  0.50725999  0.46119062     0.07000
C653        C  0.51330577  0.48620897  0.46628564    -0.06100
H654        H  0.53619620  0.51757825  0.44783116     0.07700
H655        H  0.50412321  0.48107239  0.47279663     0.08900
Cu656      Cu  0.55001395  0.46959215  0.44497127     0.44200
Cu657      Cu  0.52256399  0.43883846  0.46574158     0.42000
Cu658      Cu  0.55188533  0.41123858  0.45338664     0.43900
N659        N  0.56632956  0.45150455  0.43898659    -0.34700
N660        N  0.56709351  0.43033730  0.44290915    -0.29000
C661        C  0.57901794  0.42367582  0.43852236    -0.05100
C662        C  0.58607308  0.44145334  0.43119659     0.07100
C663        C  0.57772222  0.45882381  0.43164577     0.00900
H664        H  0.58225745  0.40705834  0.44027423     0.08600
H665        H  0.57984096  0.47563676  0.42749891     0.07700
N666        N  0.53526466  0.39520216  0.46238667    -0.36200
N667        N  0.52446600  0.40524399  0.46694983    -0.28400
C668        C  0.51541756  0.39025631  0.47132024    -0.03600
C669        C  0.52077884  0.36969214  0.46939398     0.05000
C670        C  0.53340748  0.37359380  0.46370882     0.03100
H671        H  0.50564159  0.39416312  0.47532450     0.08200
H672        H  0.54069834  0.36168403  0.46010977     0.07000
N673        N  0.29861485  0.08830349  0.33439156    -0.27300
N674        N  0.30961959  0.09741112  0.32881637    -0.35200
C675        C  0.31360020  0.08955976  0.30800372     0.01000
C676        C  0.30470717  0.07480693  0.29975235     0.07000
C677        C  0.29524798  0.07448296  0.31686270    -0.06100
H678        H  0.32252755  0.09391393  0.29976670     0.07700
H679        H  0.28691079  0.06413000  0.31714198     0.08900
Cu680      Cu  0.31968449  0.11886740  0.34985077     0.44200
Cu681      Cu  0.28970031  0.09377482  0.36698754     0.42000
Cu682      Cu  0.30844031  0.12788211  0.40783737     0.43900
N683        N  0.32926619  0.13827418  0.37378424    -0.34700
N684        N  0.32510121  0.14171981  0.39541968    -0.29000
C685        C  0.33374065  0.15366155  0.40727869    -0.05100
C686        C  0.34393348  0.15780649  0.39238799     0.07100
C687        C  0.34069015  0.14780089  0.37123517     0.00900
H688        H  0.33295172  0.15790111  0.42575614     0.08600
H689        H  0.34635768  0.14679380  0.35535720     0.07700
N690        N  0.29142712  0.11284403  0.41647592    -0.36200
N691        N  0.28435727  0.10117383  0.40178806    -0.28400
C692        C  0.27361759  0.09522476  0.41309672    -0.03600
C693        C  0.27405075  0.10333431  0.43600328     0.05000
C694        C  0.28550625  0.11433702  0.43743048     0.03100
H695        H  0.26604563  0.08572283  0.40521115     0.08200
H696        H  0.28909887  0.12349102  0.45235765     0.07000
N697        N  0.43321881  0.19961211  0.43715285    -0.27300
N698        N  0.43588959  0.17920192  0.43171061    -0.35200
C699        C  0.42578371  0.17003927  0.42116114     0.01000
C700        C  0.41619775  0.18529477  0.42007473     0.07000
C701        C  0.42117370  0.20387819  0.43051547    -0.06100
H702        H  0.42537540  0.15333599  0.41509703     0.07700
H703        H  0.41650378  0.21942187  0.43265188     0.08900
Cu704      Cu  0.45283822  0.16402701  0.43959737     0.44200
Cu705      Cu  0.44662994  0.22044367  0.45200683     0.42000
Cu706      Cu  0.47681317  0.19430592  0.46953323     0.43900
N707        N  0.46963136  0.15030349  0.45100194    -0.34700
N708        N  0.47851077  0.16122986  0.46248993    -0.29000
C709        C  0.48810706  0.14759352  0.46769562    -0.05100
C710        C  0.48508507  0.12698845  0.45906313     0.07100
C711        C  0.47326140  0.12949894  0.44857320     0.00900
H712        H  0.49658539  0.15238953  0.47719004     0.08600
H713        H  0.46761120  0.11721836  0.43974312     0.07700
N714        N  0.47344413  0.22763011  0.47016803    -0.36200
N715        N  0.46269724  0.23705100  0.46374716    -0.28400
C716        C  0.46428873  0.25878665  0.46435892    -0.03600
C717        C  0.47664231  0.26336268  0.47143658     0.05000
C718        C  0.48211054  0.24312437  0.47503695     0.03100
H719        H  0.45711080  0.27031610  0.45896984     0.08200
H720        H  0.49180289  0.23973030  0.48014808     0.07000
N721        N  0.70715512  0.00299976  0.60596054    -0.27300
N722        N  0.69506742  0.99918379  0.61088090    -0.35200
C723        C  0.69231418  0.00808170  0.63192508     0.01000
C724        C  0.70316939  0.01799767  0.64076323     0.07000
C725        C  0.71242382  0.01433494  0.62384582    -0.06100
H726        H  0.68301648  0.00751873  0.64003609     0.07700
H727        H  0.72214053  0.02015095  0.62406224     0.08900
Cu728      Cu  0.68242934  0.98310447  0.58860025     0.44200
Cu729      Cu  0.71566792  0.99408308  0.57443776     0.42000
Cu730      Cu  0.69495653  0.96711437  0.53235991     0.43900
N731        N  0.67156183  0.96782320  0.56272274    -0.34700
N732        N  0.67631865  0.96163595  0.54222503    -0.29000
C733        C  0.66698840  0.95315017  0.52883460    -0.05100
C734        C  0.65570406  0.95415658  0.54136809     0.07100
C735        C  0.65900321  0.96356284  0.56285629     0.00900
H736        H  0.66826256  0.94765556  0.51084465     0.08600
H737        H  0.65272934  0.96747159  0.57736223     0.07700
N738        N  0.71357066  0.97565384  0.52522010    -0.36200
N739        N  0.72121387  0.98506241  0.54073120    -0.28400
C740        C  0.73267433  0.98801504  0.53077978    -0.03600
C741        C  0.73218799  0.98023912  0.50783596     0.05000
C742        C  0.71991028  0.97259369  0.50488932     0.03100
H743        H  0.74071363  0.99551817  0.53954586     0.08200
H744        H  0.71592551  0.96498907  0.48930219     0.07000
N745        N  0.56528882  0.93129589  0.48625118    -0.27300
N746        N  0.56312646  0.95181349  0.49203287    -0.35200
C747        C  0.57351117  0.96018214  0.50242295     0.01000
C748        C  0.58278668  0.94431458  0.50318011     0.07000
C749        C  0.57728030  0.92617253  0.49261029    -0.06100
H750        H  0.57425636  0.97673421  0.50885023     0.07700
H751        H  0.58151337  0.91026945  0.49042810     0.08900
Cu752      Cu  0.54640015  0.96829008  0.48534854     0.44200
Cu753      Cu  0.55117285  0.91133400  0.47185272     0.42000
Cu754      Cu  0.52076521  0.93865829  0.45953248     0.43900
N755        N  0.52979867  0.98303029  0.47426356    -0.34700
N756        N  0.52035397  0.97217782  0.46435419    -0.29000
C757        C  0.51114101  0.98627899  0.45842481    -0.05100
C758        C  0.51496491  0.00715849  0.46490634     0.07100
C759        C  0.52688842  0.00431360  0.47493912     0.00900
H760        H  0.50236436  0.98154070  0.44989371     0.08600
H761        H  0.53309585  0.01670277  0.48216097     0.07700
N762        N  0.52348307  0.90519471  0.45801985    -0.36200
N763        N  0.53444053  0.89534242  0.46200738    -0.28400
C764        C  0.53263768  0.87367523  0.46052707    -0.03600
C765        C  0.51992886  0.86962643  0.45554689     0.05000
C766        C  0.51445089  0.89006459  0.45406205     0.03100
H767        H  0.53995993  0.86175131  0.46385639     0.08200
H768        H  0.50457274  0.89376384  0.45070003     0.07000
C769        C  0.64281079  0.94846481  0.53259663    -0.05300
C770        C  0.64124873  0.93428848  0.51325743    -0.05200
C771        C  0.62914371  0.92977160  0.50418020    -0.23400
C772        C  0.61836311  0.93954614  0.51409624     0.18800
C773        C  0.61984344  0.95372985  0.53361405     0.16000
C774        C  0.63199119  0.95789129  0.54286514    -0.18400
C775        C  0.60917177  0.96394726  0.54328241    -0.20200
C776        C  0.59717535  0.96055482  0.53343848    -0.12800
C777        C  0.59554330  0.94660742  0.51397507     0.03900
C778        C  0.60617247  0.93580579  0.50458007    -0.24900
H779        H  0.64939309  0.92664514  0.50509131     0.08900
H780        H  0.62823743  0.91887403  0.48920699     0.12600
H781        H  0.63301402  0.96905561  0.55757285     0.12500
H782        H  0.61012397  0.97484776  0.55824767     0.12200
H783        H  0.58911972  0.96886548  0.54114694     0.12800
H784        H  0.60502089  0.92515982  0.48944109     0.14700
C785        C  0.49260782  0.10657575  0.46094451    -0.05300
C786        C  0.50514640  0.10691169  0.46959958    -0.05200
C787        C  0.51209348  0.08762709  0.47177887    -0.23400
C788        C  0.50663865  0.06758711  0.46540309     0.18800
C789        C  0.49411653  0.06705702  0.45648799     0.16000
C790        C  0.48721853  0.08645565  0.45428070    -0.18400
C791        C  0.48862606  0.04708652  0.45011075    -0.20200
C792        C  0.49541990  0.02775221  0.45274983    -0.12800
C793        C  0.50788012  0.02791998  0.46179223     0.03900
C794        C  0.51344545  0.04807287  0.46795683    -0.24900
H795        H  0.50964658  0.12205773  0.47471408     0.08900
H796        H  0.52171297  0.08838430  0.47858286     0.12600
H797        H  0.47757995  0.08567294  0.44766908     0.12500
H798        H  0.47902375  0.04638631  0.44321107     0.12200
H799        H  0.49079261  0.01267807  0.44782042     0.12800
H800        H  0.52303683  0.04871649  0.47482608     0.14700
C801        C  0.35632501  0.16778061  0.39880359    -0.05300
C802        C  0.35753129  0.18075216  0.41917552    -0.05200
C803        C  0.36944824  0.18839928  0.42646507    -0.23400
C804        C  0.38040149  0.18292400  0.41370694     0.18800
C805        C  0.37923503  0.17033572  0.39288365     0.16000
C806        C  0.36722937  0.16318535  0.38539115    -0.18400
C807        C  0.39015532  0.16422723  0.38042900    -0.20200
C808        C  0.40215869  0.16965517  0.38910174    -0.12800
C809        C  0.40344731  0.18180940  0.40996757     0.03900
C810        C  0.39253166  0.18898569  0.42188809    -0.24900
H811        H  0.34928182  0.18478075  0.42969270     0.08900
H812        H  0.37013419  0.19805388  0.44244504     0.12600
H813        H  0.36653270  0.15308055  0.36976203     0.12500
H814        H  0.38943175  0.15461364  0.36442252     0.12200
H815        H  0.41048937  0.16412165  0.37963380     0.12800
H816        H  0.39350631  0.19818070  0.43814770     0.14700
C817        C  0.51435323  0.34819798  0.47154327    -0.05300
C818        C  0.52155164  0.32895760  0.47261642    -0.05200
C819        C  0.51560121  0.30862207  0.47353900    -0.23400
C820        C  0.50231714  0.30706785  0.47336446     0.18800
C821        C  0.49495356  0.32623355  0.47269490     0.16000
C822        C  0.50099820  0.34664794  0.47190467    -0.18400
C823        C  0.48166102  0.32463269  0.47241703    -0.20200
C824        C  0.47572591  0.30423281  0.47235038    -0.12800
C825        C  0.48295576  0.28501275  0.47266457     0.03900
C826        C  0.49629731  0.28664595  0.47345508    -0.24900
H827        H  0.53182500  0.32950338  0.47269782     0.08900
H828        H  0.52140409  0.29409141  0.47415208     0.12600
H829        H  0.49525710  0.36121269  0.47100577     0.12500
H830        H  0.47584801  0.33915541  0.47199877     0.12200
H831        H  0.46545207  0.30357946  0.47201372     0.12800
H832        H  0.50207082  0.27209610  0.47353887     0.14700
C833        C  0.64323250  0.46002922  0.39172719    -0.05300
C834        C  0.63438209  0.47192895  0.37842141    -0.05200
C835        C  0.62139770  0.47044082  0.38329996    -0.23400
C836        C  0.61701829  0.45677515  0.40134941     0.18800
C837        C  0.62578497  0.44397362  0.41413636     0.16000
C838        C  0.63884211  0.44583167  0.40938973    -0.18400
C839        C  0.62134377  0.42977552  0.43167530    -0.20200
C840        C  0.60836951  0.42861061  0.43682615    -0.12800
C841        C  0.59967117  0.44191732  0.42485570     0.03900
C842        C  0.60404481  0.45587867  0.40700490    -0.24900
H843        H  0.63751921  0.48302526  0.36477604     0.08900
H844        H  0.61480153  0.48021171  0.37317717     0.12600
H845        H  0.64558313  0.43634408  0.41951279     0.12500
H846        H  0.62790694  0.41971554  0.44153155     0.12200
H847        H  0.60516932  0.41773567  0.45064324     0.12800
H848        H  0.59734217  0.46593194  0.39744617     0.14700
C849        C  0.48256856  0.78421595  0.45763196    -0.05300
C850        C  0.47545890  0.80319235  0.46190807    -0.05200
C851        C  0.48126202  0.82371042  0.46168115    -0.23400
C852        C  0.49431475  0.82572869  0.45721575     0.18800
C853        C  0.50153868  0.80687970  0.45253512     0.16000
C854        C  0.49563287  0.78633423  0.45262348    -0.18400
C855        C  0.51461509  0.80884722  0.44824879    -0.20200
C856        C  0.52052908  0.82924747  0.44902404    -0.12800
C857        C  0.51347996  0.84812754  0.45388583     0.03900
C858        C  0.50029799  0.84622432  0.45770994    -0.24900
H859        H  0.46539304  0.80229763  0.46561748     0.08900
H860        H  0.47555374  0.83799011  0.46525899     0.12600
H861        H  0.50134468  0.77205121  0.44927044     0.12500
H862        H  0.52030517  0.79457368  0.44454540     0.12200
H863        H  0.53064693  0.83021666  0.44574156     0.12800
H864        H  0.49472648  0.86056294  0.46168956     0.14700
C865        C  0.49371848  0.60571176  0.46585970    -0.05300
C866        C  0.50654870  0.60677112  0.45898124    -0.05200
C867        C  0.51374876  0.58777310  0.45663994    -0.23400
C868        C  0.50824732  0.56734888  0.46109445     0.18800
C869        C  0.49536185  0.56612237  0.46789648     0.16000
C870        C  0.48820943  0.58520616  0.47020226    -0.18400
C871        C  0.48979978  0.54580706  0.47231245    -0.20200
C872        C  0.49693094  0.52681749  0.47009279    -0.12800
C873        C  0.50980458  0.52767523  0.46340515     0.03900
C874        C  0.51539018  0.54815100  0.45889357    -0.24900
H875        H  0.51110042  0.62227762  0.45562790     0.08900
H876        H  0.52362657  0.58906704  0.45141063     0.12600
H877        H  0.47831151  0.58393108  0.47521897     0.12500
H878        H  0.47991185  0.54458348  0.47751155     0.12200
H879        H  0.49224894  0.51148030  0.47361181     0.12800
H880        H  0.52527385  0.54928804  0.45375744     0.14700
C881        C  0.36699057  0.65196091  0.57147369    -0.05300
C882        C  0.37743267  0.63974683  0.57938107    -0.05200
C883        C  0.38956674  0.64354012  0.57023596    -0.23400
C884        C  0.39147093  0.65972620  0.55316862     0.18800
C885        C  0.38109705  0.67250592  0.54562585     0.16000
C886        C  0.36894124  0.66849736  0.55475813    -0.18400
C887        C  0.38302525  0.68894765  0.52887140    -0.20200
C888        C  0.39509832  0.69250574  0.51938117    -0.12800
C889        C  0.40540749  0.67953515  0.52629474     0.03900
C890        C  0.40353693  0.66323021  0.54335354    -0.24900
H891        H  0.37619219  0.62683753  0.59215812     0.08900
H892        H  0.39742515  0.63365351  0.57630429     0.12600
H893        H  0.36100429  0.67824778  0.54879104     0.12500
H894        H  0.37517683  0.69893136  0.52295359     0.12200
H895        H  0.39629738  0.70507745  0.50619282     0.12800
H896        H  0.41146467  0.65332684  0.54907250     0.14700
C897        C  0.30088299  0.01610189  0.20346897    -0.05300
C898        C  0.28873213  0.02390029  0.20938273    -0.05200
C899        C  0.28692054  0.03674788  0.22956942    -0.23400
C900        C  0.29724275  0.04218193  0.24416311     0.18800
C901        C  0.30951848  0.03475517  0.23809675     0.16000
C902        C  0.31123866  0.02176759  0.21797423    -0.18400
C903        C  0.31993462  0.04046939  0.25221917    -0.20200
C904        C  0.31824535  0.05347248  0.27215609    -0.12800
C905        C  0.30609367  0.06078471  0.27862498     0.03900
C906        C  0.29556599  0.05496400  0.26461593    -0.24900
H907        H  0.28056432  0.01985565  0.19860233     0.08900
H908        H  0.27744312  0.04239258  0.23378211     0.12600
H909        H  0.32072035  0.01632221  0.21357302     0.12500
H910        H  0.32941158  0.03493351  0.24781192     0.12200
H911        H  0.32648116  0.05758706  0.28275509     0.12800
H912        H  0.28617962  0.06072519  0.26935469     0.14700
C913        C  0.41437109  0.92550102  0.06407526    -0.05300
C914        C  0.40782183  0.93848162  0.04775982    -0.05200
C915        C  0.39487843  0.94240755  0.05047057    -0.23400
C916        C  0.38834042  0.93378406  0.06984442     0.18800
C917        C  0.39483982  0.92069795  0.08642510     0.16000
C918        C  0.40779909  0.91628117  0.08317581    -0.18400
C919        C  0.38833226  0.91281045  0.10627083    -0.20200
C920        C  0.37556022  0.91812534  0.10980030    -0.12800
C921        C  0.36905810  0.93092197  0.09324580     0.03900
C922        C  0.37547335  0.93849633  0.07317359    -0.24900
H923        H  0.41273806  0.94562408  0.03285686     0.08900
H924        H  0.39004000  0.95252472  0.03766816     0.12600
H925        H  0.41287266  0.90649228  0.09597622     0.12500
H926        H  0.39316550  0.90285908  0.11922743     0.12200
H927        H  0.37072969  0.91213034  0.12537533     0.12800
H928        H  0.37057078  0.94871856  0.06054381     0.14700
C929        C  0.51717302  0.08168352  0.00453442    -0.05300
C930        C  0.50388318  0.08052283  0.00205828    -0.05200
C931        C  0.49736417  0.06109798  0.00659396    -0.23400
C932        C  0.50400960  0.04248418  0.01375175     0.18800
C933        C  0.51733747  0.04349634  0.01639948     0.16000
C934        C  0.52380634  0.06302396  0.01184780    -0.18400
C935        C  0.52400811  0.02494004  0.02354518    -0.20200
C936        C  0.51753871  0.00552437  0.02812533    -0.12800
C937        C  0.50426161  0.00425939  0.02567547     0.03900
C938        C  0.49756341  0.02290227  0.01834973    -0.24900
H939        H  0.49849626  0.09451221  0.99630308     0.08900
H940        H  0.48713295  0.06062350  0.00443557     0.12600
H941        H  0.53401557  0.06360365  0.01414576     0.12500
H942        H  0.53424076  0.02545108  0.02567034     0.12200
H943        H  0.52298065  0.99159476  0.03385430     0.12800
H944        H  0.48735376  0.02228043  0.01609761     0.14700
C945        C  0.69585084  0.07620723  0.73618027    -0.05300
C946        C  0.68423044  0.07420577  0.72408802    -0.05200
C947        C  0.68345472  0.06256425  0.70298517    -0.23400
C948        C  0.69428942  0.05273557  0.69347466     0.18800
C949        C  0.70609805  0.05492337  0.70512764     0.16000
C950        C  0.70680574  0.06661030  0.72643449    -0.18400
C951        C  0.71695369  0.04527713  0.69529048    -0.20200
C952        C  0.71606427  0.03342819  0.67421606    -0.12800
C953        C  0.70428891  0.03084923  0.66279526     0.03900
C954        C  0.69345685  0.04068050  0.67252814    -0.24900
H955        H  0.67561186  0.08121924  0.73112113     0.08900
H956        H  0.67433657  0.06108193  0.69420885     0.12600
H957        H  0.71587339  0.06819437  0.73534239     0.12500
H958        H  0.72610541  0.04681602  0.70392883     0.12200
H959        H  0.72454562  0.02597496  0.66707907     0.12800
H960        H  0.68436011  0.03917804  0.66369244     0.14700
C961        C  0.64247842  0.14886208  0.88096938    -0.05300
C962        C  0.63361599  0.16175383  0.86888811    -0.05200
C963        C  0.62184090  0.16654191  0.87910305    -0.23400
C964        C  0.61864859  0.15810696  0.90134709     0.18800
C965        C  0.62744035  0.14479072  0.91340879     0.16000
C966        C  0.63932852  0.14051393  0.90330466    -0.18400
C967        C  0.62413935  0.13570864  0.93525084    -0.20200
C968        C  0.61218601  0.13962789  0.94501107    -0.12800
C969        C  0.60343758  0.15307282  0.93337348     0.03900
C970        C  0.60676554  0.16245407  0.91159744    -0.24900
H971        H  0.63587017  0.16837525  0.85168217     0.08900
H972        H  0.61519928  0.17668280  0.86953501     0.12600
H973        H  0.64600374  0.13022314  0.91260812     0.12500
H974        H  0.63075346  0.12540033  0.94467673     0.12200
H975        H  0.60982510  0.13232894  0.96184321     0.12800
H976        H  0.59999318  0.17261037  0.90235468     0.14700
C977        C  0.51293414  0.74614191  0.04200769    -0.05300
C978        C  0.49961997  0.74747190  0.03982861    -0.05200
C979        C  0.49337400  0.76740226  0.04228542    -0.23400
C980        C  0.50030119  0.78645966  0.04692252     0.18800
C981        C  0.51364625  0.78532611  0.04934751     0.16000
C982        C  0.51984462  0.76525412  0.04700765    -0.18400
C983        C  0.52062521  0.80435453  0.05379776    -0.20200
C984        C  0.51447810  0.82438797  0.05549044    -0.12800
C985        C  0.50121950  0.82579385  0.05299448     0.03900
C986        C  0.49415127  0.80665735  0.04891420    -0.24900
H987        H  0.49394440  0.73317774  0.03608288     0.08900
H988        H  0.48313076  0.76792436  0.04037027     0.12600
H989        H  0.53007551  0.76472105  0.04882075     0.12500
H990        H  0.53086265  0.80377909  0.05579298     0.12200
H991        H  0.52013753  0.83879252  0.05893933     0.12800
H992        H  0.48393133  0.80750279  0.04676291     0.14700
C993        C  0.71264681  0.55478765  0.19554383    -0.05300
C994        C  0.70639821  0.53462413  0.19732997    -0.05200
C995        C  0.70630123  0.52316720  0.21850906    -0.23400
C996        C  0.71228452  0.53182532  0.23850434     0.18800
C997        C  0.71904677  0.55170615  0.23686973     0.16000
C998        C  0.71933710  0.56300632  0.21519184    -0.18400
C999        C  0.72493691  0.56021173  0.25719239    -0.20200
C1000       C  0.72370582  0.54954412  0.27898792    -0.12800
C1001       C  0.71653560  0.53026560  0.28079903     0.03900
C1002       C  0.71115339  0.52125513  0.26029229    -0.24900
H1003       H  0.70133021  0.52788138  0.18234146     0.08900
H1004       H  0.70117339  0.50786082  0.21944287     0.12600
H1005       H  0.72412532  0.57861591  0.21396583     0.12500
H1006       H  0.73018968  0.57539211  0.25636940     0.12200
H1007       H  0.72793386  0.55681113  0.29456231     0.12800
H1008       H  0.70578234  0.50619825  0.26136820     0.14700
C1009       C  0.64347380  0.61837339  0.07204303    -0.05300
C1010       C  0.63491377  0.60091923  0.07456090    -0.05200
C1011       C  0.62214728  0.60325960  0.06826824    -0.23400
C1012       C  0.61768086  0.62319068  0.05960794     0.18800
C1013       C  0.62618801  0.64089416  0.05715175     0.16000
C1014       C  0.63903196  0.63831733  0.06317055    -0.18400
C1015       C  0.62167524  0.66095703  0.04895298    -0.20200
C1016       C  0.60883223  0.66350962  0.04335606    -0.12800
C1017       C  0.60030761  0.64598003  0.04554580     0.03900
C1018       C  0.60483372  0.62578369  0.05358715    -0.24900
H1019       H  0.63810640  0.58534575  0.08117314     0.08900
H1020       H  0.61575620  0.58951610  0.07029441     0.12600
H1021       H  0.64548680  0.65200146  0.06141543     0.12500
H1022       H  0.62806330  0.67471113  0.04698638     0.12200
H1023       H  0.60560170  0.67916528  0.03703520     0.12800
H1024       H  0.59832949  0.61220184  0.05564529     0.14700
C1025       C  0.51993074  0.25775857  0.96322322    -0.05300
C1026       C  0.52723616  0.27693903  0.96208631    -0.05200
C1027       C  0.52137270  0.29725585  0.96067436    -0.23400
C1028       C  0.50808886  0.29876875  0.96025064     0.18800
C1029       C  0.50064622  0.27962086  0.96137379     0.16000
C1030       C  0.50659784  0.25927544  0.96291000    -0.18400
C1031       C  0.48736850  0.28113314  0.96081698    -0.20200
C1032       C  0.48150708  0.30142654  0.95902915    -0.12800
C1033       C  0.48880280  0.32062735  0.95777834     0.03900
C1034       C  0.50214085  0.31909994  0.95853651    -0.24900
H1035       H  0.53750869  0.27632078  0.96253530     0.08900
H1036       H  0.52723296  0.31177955  0.95987580     0.12600
H1037       H  0.50082002  0.24465939  0.96351502     0.12500
H1038       H  0.48150842  0.26661430  0.96170207     0.12200
H1039       H  0.47123775  0.30197911  0.95870974     0.12800
H1040       H  0.50796418  0.33362093  0.95743832     0.14700
C1041       C  0.51024483  0.57490039  0.98483694    -0.05300
C1042       C  0.49827628  0.57735961  0.97413357    -0.05200
C1043       C  0.49148877  0.55916743  0.96612909    -0.23400
C1044       C  0.49652205  0.53820316  0.96885558     0.18800
C1045       C  0.50856938  0.53564119  0.97947510     0.16000
C1046       C  0.51534810  0.55392994  0.98727738    -0.18400
C1047       C  0.51361639  0.51478961  0.98239994    -0.20200
C1048       C  0.50675752  0.49654693  0.97507219    -0.12800
C1049       C  0.49469196  0.49872906  0.96460256     0.03900
C1050       C  0.48967790  0.51975672  0.96140313    -0.24900
H1051       H  0.49416622  0.59334263  0.97183181     0.08900
H1052       H  0.48227599  0.56148420  0.95797047     0.12600
H1053       H  0.52448170  0.55168790  0.99573715     0.12500
H1054       H  0.52284339  0.51255620  0.99054322     0.12200
H1055       H  0.51095317  0.48074122  0.97792514     0.12800
H1056       H  0.48044879  0.52187914  0.95329920     0.14700
C1057       C  0.30865182  0.55543498  0.68804560    -0.05300
C1058       C  0.31997502  0.54482348  0.69431286    -0.05200
C1059       C  0.32032882  0.53078156  0.71360080    -0.23400
C1060       C  0.30938447  0.52725074  0.72713139     0.18800
C1061       C  0.29791286  0.53768014  0.72091622     0.16000
C1062       C  0.29757699  0.55154773  0.70123255    -0.18400
C1063       C  0.28703867  0.53428968  0.73471634    -0.20200
C1064       C  0.28753044  0.52074513  0.75450819    -0.12800
C1065       C  0.29889494  0.51025493  0.76084773     0.03900
C1066       C  0.30979104  0.51362170  0.74691253    -0.24900
H1067       H  0.32859656  0.54732942  0.68424317     0.08900
H1068       H  0.32919605  0.52285790  0.71806880     0.12600
H1069       H  0.28882958  0.55979151  0.69663123     0.12500
H1070       H  0.27816258  0.54218640  0.73027203     0.12200
H1071       H  0.27895766  0.51847957  0.76474300     0.12800
H1072       H  0.31869115  0.50593484  0.75148784     0.14700
C1073       C  0.36073014  0.43347177  0.88387940    -0.05300
C1074       C  0.36924867  0.44906807  0.87495842    -0.05200
C1075       C  0.38186648  0.44952158  0.88244778    -0.23400
C1076       C  0.38625778  0.43408359  0.89863365     0.18800
C1077       C  0.37780346  0.41814950  0.90758033     0.16000
C1078       C  0.36501499  0.41816348  0.90042817    -0.18400
C1079       C  0.38235673  0.40231257  0.92321178    -0.20200
C1080       C  0.39519185  0.40208075  0.92960383    -0.12800
C1081       C  0.40361782  0.41793271  0.92086254     0.03900
C1082       C  0.39903188  0.43408419  0.90562895    -0.24900
H1083       H  0.36609516  0.46120255  0.86243505     0.08900
H1084       H  0.38821868  0.46182096  0.87540126     0.12600
H1085       H  0.35848568  0.40602226  0.90726545     0.12500
H1086       H  0.37604266  0.38993786  0.93021596     0.12200
H1087       H  0.39852058  0.38954691  0.94148982     0.12800
H1088       H  0.40549063  0.44620491  0.89854076     0.14700
C1089       C  0.77752093  0.63867249  0.96773323    -0.05300
C1090       C  0.78291953  0.64015461  0.99040360    -0.05200
C1091       C  0.77532221  0.63847414  0.01055419    -0.23400
C1092       C  0.76215673  0.63558055  0.00839358     0.18800
C1093       C  0.75664169  0.63423354  0.98564951     0.16000
C1094       C  0.76435745  0.63554675  0.96551346    -0.18400
C1095       C  0.74346949  0.63182557  0.98339127    -0.20200
C1096       C  0.73580629  0.63087394  0.00343923    -0.12800
C1097       C  0.74116010  0.63206929  0.02617198     0.03900
C1098       C  0.75439447  0.63423746  0.02853441    -0.24900
H1099       H  0.79305855  0.64242654  0.99259372     0.08900
H1100       H  0.77973237  0.63959194  0.02780726     0.12600
H1101       H  0.76006403  0.63468119  0.94813850     0.12500
H1102       H  0.73907812  0.63077331  0.96611357     0.12200
H1103       H  0.72566256  0.62888458  0.00107285     0.12800
H1104       H  0.75860604  0.63532496  0.04596699     0.14700
C1105       C  0.86748321  0.69041352  0.89227076    -0.05300
C1106       C  0.87124765  0.70603244  0.90900125    -0.05200
C1107       C  0.88412045  0.70927499  0.91405803    -0.23400
C1108       C  0.89337906  0.69649381  0.90291553     0.18800
C1109       C  0.88963046  0.68065606  0.88612603     0.16000
C1110       C  0.87673826  0.67800437  0.88060990    -0.18400
C1111       C  0.89879772  0.66726791  0.87565863    -0.20200
C1112       C  0.91154597  0.66920154  0.88215083    -0.12800
C1113       C  0.91537602  0.68485297  0.89881865     0.03900
C1114       C  0.90626764  0.69876120  0.90882991    -0.24900
H1115       H  0.86421293  0.71571484  0.91815769     0.08900
H1116       H  0.88681130  0.72141647  0.92705072     0.12600
H1117       H  0.87387259  0.66562376  0.86800063     0.12500
H1118       H  0.89607482  0.65499059  0.86283672     0.12200
H1119       H  0.91842922  0.65839153  0.87416774     0.12800
H1120       H  0.90911461  0.71065829  0.92198070     0.14700
C1121       C  0.99185253  0.59311055  0.97700539    -0.05300
C1122       C  0.98771991  0.57362723  0.96631632    -0.05200
C1123       C  0.99160808  0.55343695  0.97503613    -0.23400
C1124       C  0.99968725  0.55230315  0.99466730     0.18800
C1125       C  0.00388390  0.57175232  0.00557030     0.16000
C1126       C  0.99997031  0.59196490  0.99668866    -0.18400
C1127       C  0.01194428  0.57068655  0.02520093    -0.20200
C1128       C  0.01594696  0.55056629  0.03379489    -0.12800
C1129       C  0.01198215  0.53105575  0.02296029     0.03900
C1130       C  0.00372083  0.53208510  0.00345674    -0.24900
H1131       H  0.98155661  0.57390914  0.95103097     0.08900
H1132       H  0.98831356  0.53871373  0.96638313     0.12600
H1133       H  0.00316395  0.60674154  0.00532958     0.12500
H1134       H  0.01520779  0.58542631  0.03386373     0.12200
H1135       H  0.02216299  0.55037176  0.04900902     0.12800
H1136       H  0.00063087  0.51725904  0.99477695     0.14700
C1137       C  0.24190404  0.46699103  0.01640881    -0.05300
C1138       C  0.25496589  0.46447661  0.02065820    -0.05200
C1139       C  0.26346501  0.46226445  0.00190237    -0.23400
C1140       C  0.25906030  0.46279773  0.97855675     0.18800
C1141       C  0.24597840  0.46582796  0.97403842     0.16000
C1142       C  0.23746709  0.46773133  0.99299649    -0.18400
C1143       C  0.24165150  0.46685485  0.95063863    -0.20200
C1144       C  0.25019396  0.46461955  0.93189058    -0.12800
C1145       C  0.26317402  0.46109166  0.93623172     0.03900
C1146       C  0.26753424  0.46031968  0.95967823    -0.24900
H1147       H  0.25859557  0.46376215  0.03852575     0.08900
H1148       H  0.27347600  0.46004391  0.00566248     0.12600
H1149       H  0.22742976  0.46999825  0.98951630     0.12500
H1150       H  0.23166409  0.46930019  0.94683849     0.12200
H1151       H  0.24659888  0.46527266  0.91399773     0.12800
H1152       H  0.27755058  0.45804980  0.96331349     0.14700
C1153       C  0.14453282  0.45093183  0.08493307    -0.05300
C1154       C  0.14074769  0.43463744  0.06896858    -0.05200
C1155       C  0.12787977  0.43055707  0.06478146    -0.23400
C1156       C  0.11856343  0.44294139  0.07621965     0.18800
C1157       C  0.12225498  0.45946205  0.09224811     0.16000
C1158       C  0.13520957  0.46317792  0.09672149    -0.18400
C1159       C  0.11292661  0.47219452  0.10322181    -0.20200
C1160       C  0.10007253  0.46873529  0.09816693    -0.12800
C1161       C  0.09630606  0.45228224  0.08233018     0.03900
C1162       C  0.10563121  0.43930232  0.07157889    -0.24900
H1163       H  0.14775221  0.42488502  0.05983626     0.08900
H1164       H  0.12521916  0.41785080  0.05241957     0.12600
H1165       H  0.13801981  0.47597151  0.10886755     0.12500
H1166       H  0.11557305  0.48496424  0.11551904     0.12200
H1167       H  0.09306774  0.47887571  0.10678346     0.12800
H1168       H  0.10287144  0.42677792  0.05907633     0.14700
C1169       C  0.99895723  0.77366198  0.96735241    -0.05300
C1170       C  0.01231452  0.77392112  0.96782367    -0.05200
C1171       C  0.01898525  0.79356820  0.96977977    -0.23400
C1172       C  0.01242924  0.81335522  0.97143775     0.18800
C1173       C  0.99901057  0.81329543  0.97154938     0.16000
C1174       C  0.99236397  0.79348712  0.96945901    -0.18400
C1175       C  0.99247599  0.83308648  0.97346205    -0.20200
C1176       C  0.99916275  0.85279696  0.97466736    -0.12800
C1177       C  0.01252607  0.85314342  0.97394379     0.03900
C1178       C  0.01907874  0.83319727  0.97267084    -0.24900
H1179       H  0.01765144  0.75897337  0.96610387     0.08900
H1180       H  0.02928274  0.79329946  0.96971120     0.12600
H1181       H  0.98206732  0.79355209  0.96945025     0.12500
H1182       H  0.98217960  0.83335454  0.97370266     0.12200
H1183       H  0.99381354  0.86777691  0.97564249     0.12800
H1184       H  0.02936463  0.83299192  0.97249601     0.14700
C1185       C  0.23889686  0.97020901  0.96242515    -0.05300
C1186       C  0.23375950  0.96808710  0.98523016    -0.05200
C1187       C  0.24160866  0.96848238  0.00510651    -0.23400
C1188       C  0.25478425  0.97074911  0.00257287     0.18800
C1189       C  0.26007168  0.97298992  0.97975253     0.16000
C1190       C  0.25208847  0.97294808  0.95984170    -0.18400
C1191       C  0.27327498  0.97487553  0.97722944    -0.20200
C1192       C  0.28116841  0.97425874  0.99706281    -0.12800
C1193       C  0.27601678  0.97198802  0.01983834     0.03900
C1194       C  0.26276351  0.97047097  0.02245232    -0.24900
H1195       H  0.22361977  0.96624256  0.98777647     0.08900
H1196       H  0.23737802  0.96678711  0.02244706     0.12600
H1197       H  0.25617534  0.97442828  0.94235799     0.12500
H1198       H  0.27751147  0.97662520  0.95990158     0.12200
H1199       H  0.29132815  0.97571879  0.99452564     0.12800
H1200       H  0.25866051  0.96851177  0.03986345     0.14700
C1201       C  0.14499191  0.93173857  0.89907183    -0.05300
C1202       C  0.13646557  0.91888837  0.88600247    -0.05200
C1203       C  0.12376007  0.91691682  0.89314094    -0.23400
C1204       C  0.11935168  0.92838308  0.91298873     0.18800
C1205       C  0.12791499  0.94162040  0.92591556     0.16000
C1206       C  0.14069289  0.94282941  0.91916732    -0.18400
C1207       C  0.12352016  0.95388663  0.94507382    -0.20200
C1208       C  0.11070451  0.95334135  0.95124108    -0.12800
C1209       C  0.10210964  0.94009395  0.93878800     0.03900
C1210       C  0.10650908  0.92734597  0.91983767    -0.24900
H1211       H  0.13967264  0.91028254  0.87041341     0.08900
H1212       H  0.11734236  0.90678892  0.88291226     0.12600
H1213       H  0.14722474  0.95305752  0.92906360     0.12500
H1214       H  0.12995828  0.96418879  0.95505894     0.12200
H1215       H  0.10751557  0.96317078  0.96596588     0.12800
H1216       H  0.09988064  0.91728406  0.90998343     0.14700
C1217       C  0.01541709  0.34900405  0.02757292    -0.05300
C1218       C  0.02335792  0.33061651  0.02676117    -0.05200
C1219       C  0.01824895  0.30965291  0.02497216    -0.23400
C1220       C  0.00506940  0.30655059  0.02395408     0.18800
C1221       C  0.99695866  0.32483291  0.02459090     0.16000
C1222       C  0.00216304  0.34590924  0.02630153    -0.18400
C1223       C  0.98376873  0.32169608  0.02370831    -0.20200
C1224       C  0.97867016  0.30067811  0.02239328    -0.12800
C1225       C  0.98664027  0.28231511  0.02184647     0.03900
C1226       C  0.99988237  0.28546231  0.02248971    -0.24900
H1227       H  0.03358296  0.33231976  0.02743006     0.08900
H1228       H  0.02462622  0.29584502  0.02446670     0.12600
H1229       H  0.99585579  0.35978388  0.02703941     0.12500
H1230       H  0.97738228  0.33549454  0.02412256     0.12200
H1231       H  0.96844635  0.29888855  0.02165673     0.12800
H1232       H  0.00617258  0.27154162  0.02229004     0.14700
C1233       C  0.01879360  0.03472244  0.98764650    -0.05300
C1234       C  0.02651878  0.05272149  0.99344140    -0.05200
C1235       C  0.02127804  0.07347495  0.99618954    -0.23400
C1236       C  0.00820569  0.07670045  0.99306156     0.18800
C1237       C  0.00037857  0.05873830  0.98716197     0.16000
C1238       C  0.00568553  0.03792968  0.98458769    -0.18400
C1239       C  0.98734871  0.06186180  0.98382443    -0.20200
C1240       C  0.98207391  0.08250901  0.98645959    -0.12800
C1241       C  0.98967296  0.10058054  0.99264245     0.03900
C1242       C  0.00281805  0.09751403  0.99577904    -0.24900
H1243       H  0.03663313  0.05078774  0.99611684     0.08900
H1244       H  0.02745614  0.08699249  0.00075517     0.12600
H1245       H  0.99960511  0.02433392  0.97987077     0.12500
H1246       H  0.98121068  0.04831735  0.97915008     0.12200
H1247       H  0.97197676  0.08417183  0.98350460     0.12800
H1248       H  0.00883511  0.11116122  0.00058496     0.14700
C1249       C  0.73912021  0.09541176  0.91286193    -0.05300
C1250       C  0.75180705  0.09249244  0.90584246    -0.05200
C1251       C  0.76135006  0.08936193  0.92268333    -0.23400
C1252       C  0.75833487  0.08893392  0.94680249     0.18800
C1253       C  0.74556176  0.09136151  0.95396366     0.16000
C1254       C  0.73607483  0.09463008  0.93700384    -0.18400
C1255       C  0.74248008  0.09067133  0.97800790    -0.20200
C1256       C  0.75200040  0.08799160  0.99490181    -0.12800
C1257       C  0.76478310  0.08609706  0.98807271     0.03900
C1258       C  0.76786760  0.08636267  0.96389964    -0.24900
H1259       H  0.75440940  0.09309019  0.88737165     0.08900
H1260       H  0.77109275  0.08746819  0.91686057     0.12600
H1261       H  0.72630773  0.09646749  0.94268298     0.12500
H1262       H  0.73272074  0.09247469  0.98377521     0.12200
H1263       H  0.74935797  0.08804584  0.01335810     0.12800
H1264       H  0.77767245  0.08467398  0.95837002     0.14700
C1265       C  0.90235275  0.17697089  0.04010098    -0.05300
C1266       C  0.89643055  0.18575321  0.06015604    -0.05200
C1267       C  0.88374681  0.18057871  0.06524333    -0.23400
C1268       C  0.87681278  0.16678115  0.05015274     0.18800
C1269       C  0.88260121  0.15880580  0.02937199     0.16000
C1270       C  0.89529763  0.16385581  0.02457808    -0.18400
C1271       C  0.87571392  0.14544344  0.01393109    -0.20200
C1272       C  0.86330989  0.13932538  0.01938802    -0.12800
C1273       C  0.85758883  0.14631560  0.04047068     0.03900
C1274       C  0.86432563  0.16038536  0.05565115    -0.24900
H1275       H  0.90173482  0.19595864  0.07229228     0.08900
H1276       H  0.87944559  0.18701871  0.08115417     0.12600
H1277       H  0.89973957  0.15737841  0.00880157     0.12500
H1278       H  0.88001454  0.13933207  0.99785998     0.12200
H1279       H  0.85839055  0.12840993  0.00744656     0.12800
H1280       H  0.85993247  0.16610502  0.07180351     0.14700
C1281       C  0.77083414  0.98236709  0.41784228    -0.05300
C1282       C  0.75823273  0.98422624  0.40975967    -0.05200
C1283       C  0.74805707  0.98373535  0.42566298    -0.23400
C1284       C  0.75030261  0.98148902  0.44994843     0.18800
C1285       C  0.76292061  0.97961672  0.45820325     0.16000
C1286       C  0.77303147  0.97995385  0.44218345    -0.18400
C1287       C  0.76528498  0.97769709  0.48243842    -0.20200
C1288       C  0.75524795  0.97794205  0.49846229    -0.12800
C1289       C  0.74266048  0.97977928  0.49053856     0.03900
C1290       C  0.74020926  0.98132538  0.46618042    -0.24900
H1291       H  0.75618247  0.98601943  0.39115588     0.08900
H1292       H  0.73844833  0.98523885  0.41898248     0.12600
H1293       H  0.78261642  0.97868178  0.44893263     0.12500
H1294       H  0.77491218  0.97618511  0.48902937     0.12200
H1295       H  0.75733799  0.97645890  0.51710639     0.12800
H1296       H  0.73051729  0.98290755  0.45993438     0.14700
C1297       C  0.81365572  0.01882311  0.24373756    -0.05300
C1298       C  0.82465280  0.02105250  0.22981519    -0.05200
C1299       C  0.82425253  0.03195615  0.20825641    -0.23400
C1300       C  0.81283187  0.04075569  0.20003946     0.18800
C1301       C  0.80161692  0.03824727  0.21347362     0.16000
C1302       C  0.80210449  0.02738185  0.23525471    -0.18400
C1303       C  0.79012303  0.04666762  0.20484992    -0.20200
C1304       C  0.78978020  0.05743722  0.18310617    -0.12800
C1305       C  0.80096211  0.06036527  0.17000027     0.03900
C1306       C  0.81246053  0.05200995  0.17857429    -0.24900
H1307       H  0.83368607  0.01466136  0.23560017     0.08900
H1308       H  0.83291120  0.03359168  0.19805040     0.12600
H1309       H  0.79347628  0.02569390  0.24548120     0.12500
H1310       H  0.78141509  0.04487839  0.21487144     0.12200
H1311       H  0.78084001  0.06383467  0.17670920     0.12800
H1312       H  0.82108862  0.05397257  0.16832307     0.14700
C1313       C  0.87269818  0.96424073  0.39212261    -0.05300
C1314       C  0.87591335  0.97589860  0.41261868    -0.05200
C1315       C  0.88752561  0.97242819  0.42385616    -0.23400
C1316       C  0.89600089  0.95685366  0.41507458     0.18800
C1317       C  0.89280578  0.94482589  0.39459291     0.16000
C1318       C  0.88123951  0.94886517  0.38297938    -0.18400
C1319       C  0.90116572  0.92879348  0.38632747    -0.20200
C1320       C  0.91259846  0.92480047  0.39816719    -0.12800
C1321       C  0.91594788  0.93695490  0.41829309     0.03900
C1322       C  0.90755566  0.95298198  0.42661957    -0.24900
H1323       H  0.86944799  0.98785782  0.41985963     0.08900
H1324       H  0.88981226  0.98174972  0.43956349     0.12600
H1325       H  0.87870675  0.93963516  0.36732704     0.12500
H1326       H  0.89885030  0.91930505  0.37075635     0.12200
H1327       H  0.91890280  0.91241928  0.39132629     0.12800
H1328       H  0.90988156  0.96223938  0.44234280     0.14700
C1329       C  0.00966476  0.08881293  0.51285462    -0.05300
C1330       C  0.99721361  0.08856998  0.50378975    -0.05200
C1331       C  0.99079614  0.06892654  0.50009141    -0.23400
C1332       C  0.99669532  0.04910540  0.50535567     0.18800
C1333       C  0.00919185  0.04905894  0.51439432     0.16000
C1334       C  0.01558852  0.06885322  0.51807476    -0.18400
C1335       C  0.01508312  0.02919776  0.51960509    -0.20200
C1336       C  0.00867028  0.00954067  0.51574816    -0.12800
C1337       C  0.99623739  0.00935622  0.50661746     0.03900
C1338       C  0.99030915  0.02934472  0.50158655    -0.24900
H1339       H  0.99236604  0.10352638  0.49944575     0.08900
H1340       H  0.98121152  0.06924894  0.49308612     0.12600
H1341       H  0.02513950  0.06855682  0.52514218     0.12500
H1342       H  0.02466755  0.02885408  0.52660476     0.12200
H1343       H  0.01349206  0.99451687  0.51995401     0.12800
H1344       H  0.98078673  0.02970684  0.49439883     0.14700
C1345       C  0.23888857  0.10294593  0.53124432    -0.05300
C1346       C  0.25180524  0.10270644  0.53759489    -0.05200
C1347       C  0.26128880  0.10257581  0.52024944    -0.23400
C1348       C  0.25803077  0.10240397  0.49621036     0.18800
C1349       C  0.24507874  0.10211252  0.48963648     0.16000
C1350       C  0.23562614  0.10255613  0.50713232    -0.18400
C1351       C  0.24178378  0.10142002  0.46564396    -0.20200
C1352       C  0.25122299  0.10122856  0.44828076    -0.12800
C1353       C  0.26412771  0.10209687  0.45454486     0.03900
C1354       C  0.26747184  0.10260962  0.47862746    -0.24900
H1355       H  0.25459948  0.10306943  0.55598436     0.08900
H1356       H  0.27117120  0.10269572  0.52564159     0.12600
H1357       H  0.22572163  0.10238167  0.50190483     0.12500
H1358       H  0.23189571  0.10113165  0.46029207     0.12200
H1359       H  0.24840813  0.10099702  0.42989469     0.12800
H1360       H  0.27740706  0.10305425  0.48367877     0.14700
C1361       C  0.19784163  0.06623233  0.70893449    -0.05300
C1362       C  0.18607337  0.06069889  0.71909055    -0.05200
C1363       C  0.18548450  0.04874796  0.73996786    -0.23400
C1364       C  0.19665596  0.04215578  0.75127119     0.18800
C1365       C  0.20858114  0.04788787  0.74160619     0.16000
C1366       C  0.20911019  0.05977748  0.72036942    -0.18400
C1367       C  0.21972356  0.04150785  0.75334587    -0.20200
C1368       C  0.21903005  0.02922112  0.77415497    -0.12800
C1369       C  0.20719136  0.02292409  0.78345439     0.03900
C1370       C  0.19604518  0.02973729  0.77198149    -0.24900
H1371       H  0.17723953  0.06520717  0.71065785     0.08900
H1372       H  0.17626505  0.04451468  0.74718064     0.12600
H1373       H  0.21824706  0.06411057  0.71288143     0.12500
H1374       H  0.22896707  0.04584735  0.74633235     0.12200
H1375       H  0.22776118  0.02421298  0.78264530     0.12800
H1376       H  0.18683481  0.02543972  0.77916658     0.14700
C1377       C  0.09540791  0.17297410  0.57098609    -0.05300
C1378       C  0.10037555  0.18280251  0.59138962    -0.05200
C1379       C  0.11300940  0.17909184  0.59805453    -0.23400
C1380       C  0.12089077  0.16588716  0.58408873     0.18800
C1381       C  0.11606184  0.15684597  0.56292427     0.16000
C1382       C  0.10333992  0.16021479  0.55670577    -0.18400
C1383       C  0.12397458  0.14429196  0.54846598    -0.20200
C1384       C  0.13650084  0.14023039  0.55516411    -0.12800
C1385       C  0.14126362  0.14828931  0.57663928     0.03900
C1386       C  0.13343847  0.16129692  0.59098691    -0.24900
H1387       H  0.09435860  0.19268396  0.60258298     0.08900
H1388       H  0.11656811  0.18632882  0.61422534     0.12600
H1389       H  0.09957340  0.15284752  0.54074384     0.12500
H1390       H  0.12043250  0.13739936  0.53210268     0.12200
H1391       H  0.14233629  0.13011243  0.54389604     0.12800
H1392       H  0.13710965  0.16778802  0.60745099     0.14700
C1393       C  0.02484211  0.76648912  0.48912085    -0.05300
C1394       C  0.03173803  0.78533050  0.49514047    -0.05200
C1395       C  0.02623916  0.80590340  0.49309323    -0.23400
C1396       C  0.01375602  0.80806259  0.48479748     0.18800
C1397       C  0.00670337  0.78926183  0.47871235     0.16000
C1398       C  0.01224758  0.76859367  0.48106242    -0.18400
C1399       C  0.99426748  0.79148871  0.47018251    -0.20200
C1400       C  0.98886074  0.81213209  0.46775283    -0.12800
C1401       C  0.99575482  0.83099560  0.47387750     0.03900
C1402       C  0.00825325  0.82873013  0.48239095    -0.24900
H1403       H  0.04139988  0.78418841  0.50157980     0.08900
H1404       H  0.03178264  0.82014062  0.49788840     0.12600
H1405       H  0.00684723  0.75425198  0.47609343     0.12500
H1406       H  0.98871251  0.77726352  0.46538739     0.12200
H1407       H  0.97921116  0.81320748  0.46128906     0.12800
H1408       H  0.01380019  0.84299656  0.48698038     0.14700
C1409       C  0.24429586  0.62486170  0.44599188    -0.05300
C1410       C  0.25726499  0.62692188  0.44056790    -0.05200
C1411       C  0.26635556  0.62788527  0.45854465    -0.23400
C1412       C  0.26264849  0.62641978  0.48227016     0.18800
C1413       C  0.24963789  0.62405802  0.48792492     0.16000
C1414       C  0.24053855  0.62355788  0.46978049    -0.18400
C1415       C  0.24597010  0.62200589  0.51162137    -0.20200
C1416       C  0.25510875  0.62221694  0.52955450    -0.12800
C1417       C  0.26805306  0.62483649  0.52416234     0.03900
C1418       C  0.27174315  0.62703586  0.50040867    -0.24900
H1419       H  0.26037415  0.62809539  0.42239673     0.08900
H1420       H  0.27629183  0.62964736  0.45388161     0.12600
H1421       H  0.23057179  0.62167872  0.47417180     0.12500
H1422       H  0.23604149  0.62011023  0.51628093     0.12200
H1423       H  0.25202172  0.62059925  0.54769574     0.12800
H1424       H  0.28170936  0.62873928  0.49595273     0.14700
C1425       C  0.20998791  0.55710222  0.27757179    -0.05300
C1426       C  0.20046384  0.54121628  0.27515544    -0.05200
C1427       C  0.20037033  0.52719226  0.25585966    -0.23400
C1428       C  0.20963351  0.52917432  0.23828537     0.18800
C1429       C  0.21952910  0.54463676  0.24073955     0.16000
C1430       C  0.21979821  0.55831565  0.26074051    -0.18400
C1431       C  0.22858518  0.54667826  0.22263808    -0.20200
C1432       C  0.22742606  0.53431711  0.20187051    -0.12800
C1433       C  0.21727805  0.51956904  0.19903994     0.03900
C1434       C  0.20874442  0.51655187  0.21781034    -0.24900
H1435       H  0.19293207  0.53987295  0.28810625     0.08900
H1436       H  0.19276395  0.51533708  0.25424267     0.12600
H1437       H  0.22714256  0.57063142  0.26252191     0.12500
H1438       H  0.23628056  0.55836197  0.22417356     0.12200
H1439       H  0.23419004  0.53688958  0.18775297     0.12800
H1440       H  0.20107217  0.50483987  0.21628781     0.14700
C1441       C  0.14550423  0.64684088  0.39354193    -0.05300
C1442       C  0.13498599  0.63640526  0.38312824    -0.05200
C1443       C  0.12276176  0.63956117  0.39209723    -0.23400
C1444       C  0.12084213  0.65325219  0.41158914     0.18800
C1445       C  0.13125267  0.66457444  0.42154615     0.16000
C1446       C  0.14348602  0.66135572  0.41241792    -0.18400
C1447       C  0.12929073  0.67854993  0.44081898    -0.20200
C1448       C  0.11715626  0.68086345  0.45052231    -0.12800
C1449       C  0.10685224  0.66906420  0.44125886     0.03900
C1450       C  0.10873407  0.65549086  0.42156983    -0.24900
H1451       H  0.13621575  0.62518707  0.36857041     0.08900
H1452       H  0.11485275  0.63091087  0.38412359     0.12600
H1453       H  0.15144028  0.66990498  0.42033272     0.12500
H1454       H  0.13716730  0.68742598  0.44860510     0.12200
H1455       H  0.11589269  0.69139320  0.46568680     0.12800
H1456       H  0.10078220  0.64661620  0.41403489     0.14700
C1457       C  0.99312346  0.34538955  0.52114447    -0.05300
C1458       C  0.00646839  0.34588111  0.51945900    -0.05200
C1459       C  0.01352636  0.32667768  0.52069247    -0.23400
C1460       C  0.00738666  0.30658241  0.52359010     0.18800
C1461       C  0.99397917  0.30583183  0.52483321     0.16000
C1462       C  0.98695973  0.32516040  0.52359880    -0.18400
C1463       C  0.98779410  0.28575212  0.52744575    -0.20200
C1464       C  0.99482322  0.26658310  0.52893235    -0.12800
C1465       C  0.00817097  0.26712967  0.52803880     0.03900
C1466       C  0.01440968  0.28724357  0.52534742    -0.24900
H1467       H  0.01154330  0.36111723  0.51759912     0.08900
H1468       H  0.02379604  0.32757441  0.51958581     0.12600
H1469       H  0.97669658  0.32432805  0.52459459     0.12500
H1470       H  0.97751987  0.28487117  0.52844114     0.12200
H1471       H  0.98978401  0.25133838  0.53120437     0.12800
H1472       H  0.02469160  0.28783568  0.52437397     0.14700
C1473       C  0.01816671  0.58670573  0.48433198    -0.05300
C1474       C  0.02255404  0.56771878  0.47310102    -0.05200
C1475       C  0.01649339  0.54775479  0.47675841    -0.23400
C1476       C  0.00595470  0.54638261  0.49178410     0.18800
C1477       C  0.00131580  0.56540973  0.50280404     0.16000
C1478       C  0.00739637  0.58542820  0.49893144    -0.18400
C1479       C  0.99079309  0.56404830  0.51785097    -0.20200
C1480       C  0.98501260  0.54397211  0.52220939    -0.12800
C1481       C  0.98962317  0.52485029  0.51157563     0.03900
C1482       C  0.00007613  0.52626987  0.49617926    -0.24900
H1483       H  0.03070954  0.56820271  0.46149215     0.08900
H1484       H  0.02013868  0.53335541  0.46804011     0.12600
H1485       H  0.00391607  0.59983142  0.50784013     0.12500
H1486       H  0.98711169  0.57847622  0.52646166     0.12200
H1487       H  0.97704240  0.54348305  0.53423990     0.12800
H1488       H  0.00368725  0.51179753  0.48759501     0.14700
C1489       C  0.77093494  0.49141726  0.53300384    -0.05300
C1490       C  0.77677943  0.48972034  0.51074098    -0.05200
C1491       C  0.76959524  0.49056416  0.49001792    -0.23400
C1492       C  0.75637058  0.49286609  0.49107674     0.18800
C1493       C  0.75035117  0.49461887  0.51331902     0.16000
C1494       C  0.75767582  0.49414177  0.53412345    -0.18400
C1495       C  0.73708374  0.49642679  0.51435333    -0.20200
C1496       C  0.72985082  0.49608956  0.49362680    -0.12800
C1497       C  0.73573794  0.49433942  0.47142404     0.03900
C1498       C  0.74905522  0.49304720  0.47028503    -0.24900
H1499       H  0.78697199  0.48790956  0.50924941     0.08900
H1500       H  0.77438453  0.48919674  0.47315044     0.12600
H1501       H  0.75301901  0.49531262  0.55113599     0.12500
H1502       H  0.73228100  0.49780262  0.53120589     0.12200
H1503       H  0.71961528  0.49731427  0.49497738     0.12800
H1504       H  0.75369481  0.49147919  0.45328815     0.14700
C1505       C  0.79717971  0.54937591  0.71288524    -0.05300
C1506       C  0.78525436  0.55351813  0.72309561    -0.05200
C1507       C  0.78422812  0.56706846  0.74299199    -0.23400
C1508       C  0.79510068  0.57691422  0.75279879     0.18800
C1509       C  0.80705953  0.57310230  0.74224952     0.16000
C1510       C  0.80801529  0.55938235  0.72258661    -0.18400
C1511       C  0.81795099  0.58305450  0.75148301    -0.20200
C1512       C  0.81707201  0.59670868  0.77102659    -0.12800
C1513       C  0.80530159  0.60063321  0.78195670     0.03900
C1514       C  0.79429576  0.59053947  0.77282455    -0.24900
H1515       H  0.77676241  0.54597941  0.71596284     0.08900
H1516       H  0.77495118  0.56981963  0.75070617     0.12600
H1517       H  0.81725425  0.55675163  0.71467139     0.12500
H1518       H  0.82718690  0.58025358  0.74360100     0.12200
H1519       H  0.82574013  0.60388439  0.77782679     0.12800
H1520       H  0.78516336  0.59351719  0.78103489     0.14700
C1521       C  0.86456465  0.45904356  0.60750472    -0.05300
C1522       C  0.87402256  0.47180556  0.61838360    -0.05200
C1523       C  0.88682602  0.46869762  0.61301183    -0.23400
C1524       C  0.89043079  0.45262461  0.59681531     0.18800
C1525       C  0.88107520  0.43904971  0.58648420     0.16000
C1526       C  0.86818261  0.44243762  0.59177710    -0.18400
C1527       C  0.88478261  0.42263608  0.57068552    -0.20200
C1528       C  0.89758337  0.42021609  0.56456687    -0.12800
C1529       C  0.90683286  0.43434406  0.57391209     0.03900
C1530       C  0.90320975  0.45026350  0.59037551    -0.24900
H1531       H  0.87152526  0.48475714  0.63047608     0.08900
H1532       H  0.89388957  0.47914126  0.62120602     0.12600
H1533       H  0.86098499  0.43229780  0.58353651     0.12500
H1534       H  0.87776573  0.41195238  0.56273016     0.12200
H1535       H  0.90017840  0.40784145  0.55183291     0.12800
H1536       H  0.91032398  0.46099939  0.59797154     0.14700
loop_ 
_geom_bond_atom_site_label_1 
_geom_bond_atom_site_label_2 
_geom_bond_distance 
_geom_bond_site_symmetry_2 
_ccdc_geom_bond_type 
N1            N2   1.324       .  A
N1            C5   1.349       .  A
N1           Cu9   2.095       .  S
N2            C3   1.343       .  A
N2           Cu8   2.076       .  S
C3            C4   1.384       .  A
C3            H6   1.081       .  S
C4            C5   1.390       .  A
C4         C1489   1.486       .  S
C5            H7   1.082       .  S
Cu8          N11   2.074       .  S
Cu9          N19   2.094       .  S
Cu10         N12   2.061       .  S
Cu10         N18   2.062       .  S
N11          N12   1.319       .  A
N11          C15   1.346       .  A
N12          C13   1.342       .  A
C13          C14   1.385       .  A
C13          H16   1.082       .  S
C14          C15   1.388       .  A
C14        C1521   1.481       .  S
C15          H17   1.082       .  S
N18          N19   1.322       .  A
N18          C22   1.340       .  A
N19          C20   1.351       .  A
C20          C21   1.391       .  A
C20          H23   1.082       .  S
C21          C22   1.383       .  A
C21        C1505   1.484       .  S
C22          H24   1.082       .  S
N25          N26   1.320       .  A
N25          C29   1.344       .  A
N25         Cu33   2.071       .  S
N26          C27   1.342       .  A
N26         Cu32   2.065       .  S
C27          C28   1.386       .  A
C27          H30   1.081       .  S
C28          C29   1.388       .  A
C28        C1481   1.483       .  S
C29          H31   1.081       .  S
Cu32         N35   2.065       .  S
Cu33         N43   2.071       .  S
Cu34         N36   2.074       .  S
Cu34         N42   2.075       .  S
N35          N36   1.321       .  A
N35          C39   1.342       .  A
N36          C37   1.347       .  A
C37          C38   1.386       .  A
C37          H40   1.082       .  S
C38          C39   1.383       .  A
C38        C1529   1.477       .  S
C39          H41   1.082       .  S
N42          N43   1.322       .  A
N42          C46   1.343       .  A
N43          C44   1.344       .  A
C44          C45   1.387       .  A
C44          H47   1.081       .  S
C45          C46   1.388       .  A
C45        C1457   1.486       .  S
C46          H48   1.081       .  S
N49          N50   1.322       .  A
N49          C53   1.346       .  A
N49         Cu57   2.083       .  S
N50          C51   1.344       .  A
N50         Cu56   2.066       .  S
C51          C52   1.383       .  A
C51          H54   1.082       .  S
C52          C53   1.387       .  A
C52        C1409   1.480       .  S
C53          H55   1.082       .  S
Cu56         N59   2.064       .  S
Cu57         N67   2.082       .  S
Cu58         N60   2.070       .  S
Cu58         N66   2.071       .  S
N59          N60   1.319       .  A
N59          C63   1.341       .  A
N60          C61   1.346       .  A
C61          C62   1.389       .  A
C61          H64   1.082       .  S
C62          C63   1.386       .  A
C62        C1441   1.482       .  S
C63          H65   1.081       .  S
N66          N67   1.324       .  A
N66          C70   1.340       .  A
N67          C68   1.350       .  A
C68          C69   1.385       .  A
C68          H71   1.082       .  S
C69          C70   1.381       .  A
C69        C1425   1.474       .  S
C70          H72   1.082       .  S
N73          N74   1.320       .  A
N73          C77   1.345       .  A
N73         Cu81   2.073       .  S
N74          C75   1.341       .  A
N74         Cu80   2.056       .  S
C75          C76   1.384       .  A
C75          H78   1.081       .  S
C76          C77   1.389       .  A
C76        C1473   1.481       .  S
C77          H79   1.081       .  S
Cu80         N83   2.056       .  S
Cu81         N91   2.074       .  S
Cu82         N84   2.079       .  S
Cu82         N90   2.080       .  S
N83          N84   1.321       .  A
N83          C87   1.340       .  A
N84          C85   1.347       .  A
C85          C86   1.387       .  A
C85          H88   1.082       .  S
C86          C87   1.381       .  A
C86        C1449   1.476       .  S
C87          H89   1.082       .  S
N90          N91   1.323       .  A
N90          C94   1.345       .  A
N91          C92   1.345       .  A
C92          C93   1.386       .  A
C92          H95   1.082       .  S
C93          C94   1.386       .  A
C93        C1393   1.483       .  S
C94          H96   1.082       .  S
N97          N98   1.323       .  A
N97         C101   1.349       .  A
N97        Cu105   2.094       .  S
N98          C99   1.343       .  A
N98        Cu104   2.072       .  S
C99         C100   1.384       .  A
C99         H102   1.082       .  S
C100        C101   1.391       .  A
C100       C1345   1.487       .  S
C101        H103   1.082       .  S
Cu104       N107   2.071       .  S
Cu105       N115   2.093       .  S
Cu106       N108   2.071       .  S
Cu106       N114   2.072       .  S
N107        N108   1.320       .  A
N107        C111   1.344       .  A
N108        C109   1.346       .  A
C109        C110   1.385       .  A
C109        H112   1.082       .  S
C110        C111   1.385       .  A
C110       C1385   1.478       .  S
C111        H113   1.082       .  S
N114        N115   1.323       .  A
N114        C118   1.342       .  A
N115        C116   1.350       .  A
C116        C117   1.389       .  A
C116        H119   1.082       .  S
C117        C118   1.385       .  A
C117       C1361   1.486       .  S
C118        H120   1.082       .  S
N121        N122   1.318       .  A
N121        C125   1.344       .  A
N121       Cu129   2.067       .  S
N122        C123   1.342       .  A
N122       Cu128   2.060       .  S
C123        C124   1.388       .  A
C123        H126   1.081       .  S
C124        C125   1.390       .  A
C124       C1329   1.486       .  S
C125        H127   1.081       .  S
Cu128       N131   2.061       .  S
Cu129       N139   2.068       .  S
Cu130       N132   2.084       .  S
Cu130       N138   2.085       .  S
N131        N132   1.322       .  A
N131        C135   1.340       .  A
N132        C133   1.349       .  A
C133        C134   1.386       .  A
C133        H136   1.082       .  S
C134        C135   1.379       .  A
C134       C1377   1.474       .  S
C135        H137   1.082       .  S
N138        N139   1.323       .  A
N138        C142   1.347       .  A
N139        C140   1.342       .  A
C140        C141   1.382       .  A
C140        H143   1.082       .  S
C141        C142   1.387       .  A
C141       C1465   1.479       .  S
C142        H144   1.082       .  S
N145        N146   1.319       .  A
N145        C149   1.346       .  A
N145       Cu153   2.069       .  S
N146        C147   1.340       .  A
N146       Cu152   2.060       .  S
C147        C148   1.387       .  A
C147        H150   1.081       .  S
C148        C149   1.390       .  A
C148       C1281   1.485       .  S
C149        H151   1.081       .  S
Cu152       N155   2.060       .  S
Cu153       N163   2.071       .  S
Cu154       N156   2.080       .  S
Cu154       N162   2.082       .  S
N155        N156   1.321       .  A
N155        C159   1.341       .  A
N156        C157   1.348       .  A
C157        C158   1.386       .  A
C157        H160   1.082       .  S
C158        C159   1.380       .  A
C158       C1313   1.474       .  S
C159        H161   1.082       .  S
N162        N163   1.322       .  A
N162        C166   1.344       .  A
N163        C164   1.344   1_565  A
C164        C165   1.387       .  A
C164        H167   1.081       .  S
C165        C166   1.389   1_545  A
C165       C1297   1.487       .  S
C166        H168   1.081       .  S
N169        N170   1.320       .  A
N169        C173   1.347       .  A
N169       Cu177   2.080       .  S
N170        C171   1.342       .  A
N170       Cu176   2.060       .  S
C171        C172   1.384       .  A
C171        H174   1.082       .  S
C172        C173   1.389       .  A
C172       C1321   1.482       .  S
C173        H175   1.082       .  S
Cu176       N179   2.059       .  S
Cu177       N187   2.081       .  S
Cu178       N180   2.078       .  S
Cu178       N186   2.079       .  S
N179        N180   1.320       .  A
N179        C183   1.341       .  A
N180        C181   1.346       .  A
C181        C182   1.391       .  A
C181        H184   1.081   1_655  S
C182        C183   1.386       .  A
C182       C1337   1.486   1_565  S
C183        H185   1.081       .  S
N186        N187   1.323       .  A
N186        C190   1.345       .  A
N187        C188   1.345       .  A
C188        C189   1.388       .  A
C188        H191   1.081       .  S
C189        C190   1.388       .  A
C189       C1401   1.488       .  S
C190        H192   1.081   1_655  S
N193        N194   1.321       .  A
N193        C197   1.345       .  A
N193       Cu201   2.078       .  S
N194        C195   1.342       .  A
N194       Cu200   2.061       .  S
C195        C196   1.383       .  A
C195        H198   1.082   1_554  S
C196        C197   1.388       .  A
C196       C1257   1.480   1_554  S
C197        H199   1.082       .  S
Cu200       N203   2.061       .  S
Cu201       N211   2.079       .  S
Cu202       N204   2.067       .  S
Cu202       N210   2.068       .  S
N203        N204   1.320       .  A
N203        C207   1.341       .  A
N204        C205   1.345       .  A
C205        C206   1.386       .  A
C205        H208   1.082       .  S
C206        C207   1.385       .  A
C206       C1273   1.477       .  S
C207        H209   1.082       .  S
N210        N211   1.323       .  A
N210        C214   1.342       .  A
N211        C212   1.347       .  A
C212        C213   1.384       .  A
C212        H215   1.082       .  S
C213        C214   1.381       .  A
C213       C1305   1.473       .  S
C214        H216   1.082       .  S
N217        N218   1.320       .  A
N217        C221   1.352   1_554  A
N217       Cu225   2.098       .  S
N218        C219   1.338   1_554  A
N218       Cu224   2.050       .  S
C219        C220   1.383       .  A
C219        H222   1.081       .  S
C220        C221   1.395       .  A
C220       C1241   1.489       .  S
C221        H223   1.081       .  S
Cu224       N227   2.050       .  S
Cu225       N235   2.100       .  S
Cu226       N228   2.070       .  S
Cu226       N234   2.073       .  S
N227        N228   1.318       .  A
N227        C231   1.339       .  A
N228        C229   1.348       .  A
C229        C230   1.387       .  A
C229        H232   1.082       .  S
C230        C231   1.382       .  A
C230       C1265   1.474       .  S
C231        H233   1.082       .  S
N234        N235   1.325       .  A
N234        C238   1.343       .  A
N235        C236   1.349       .  A
C236        C237   1.391       .  A
C236        H239   1.081       .  S
C237        C238   1.384       .  A
C237       C1225   1.487       .  S
C238        H240   1.081       .  S
N241        N242   1.322       .  A
N241        C245   1.349       .  A
N241       Cu249   2.091       .  S
N242        C243   1.341       .  A
N242       Cu248   2.062       .  S
C243        C244   1.382       .  A
C243        H246   1.082       .  S
C244        C245   1.390       .  A
C244       C1185   1.482       .  S
C245        H247   1.082       .  S
Cu248       N251   2.062       .  S
Cu249       N259   2.091       .  S
Cu250       N252   2.075       .  S
Cu250       N258   2.076       .  S
N251        N252   1.320       .  A
N251        C255   1.342       .  A
N252        C253   1.347       .  A
C253        C254   1.386       .  A
C253        H256   1.082       .  S
C254        C255   1.382       .  A
C254       C1201   1.473       .  S
C255        H257   1.082       .  S
N258        N259   1.324       .  A
N258        C262   1.342       .  A
N259        C260   1.350   1_565  A
C260        C261   1.389       .  A
C260        H263   1.082       .  S
C261        C262   1.384   1_545  A
C261       C1369   1.485       .  S
C262        H264   1.081       .  S
N265        N266   1.322       .  A
N265        C269   1.348       .  A
N265       Cu273   2.092       .  S
N266        C267   1.343   1_565  A
N266       Cu272   2.065       .  S
C267        C268   1.384       .  A
C267        H270   1.081       .  S
C268        C269   1.391   1_545  A
C268       C1233   1.486       .  S
C269        H271   1.081       .  S
Cu272       N275   2.065       .  S
Cu273       N283   2.092       .  S
Cu274       N276   2.073       .  S
Cu274       N282   2.073       .  S
N275        N276   1.320       .  A
N275        C279   1.342       .  A
N276        C277   1.347       .  A
C277        C278   1.385       .  A
C277        H280   1.082       .  S
C278        C279   1.384       .  A
C278       C1209   1.476       .  S
C279        H281   1.082       .  S
N282        N283   1.322       .  A
N282        C286   1.343       .  A
N283        C284   1.349       .  A
C284        C285   1.392       .  A
C284        H287   1.081       .  S
C285        C286   1.386       .  A
C285       C1177   1.490       .  S
C286        H288   1.081       .  S
N289        N290   1.324       .  A
N289        C293   1.345       .  A
N289       Cu297   2.082       .  S
N290        C291   1.344       .  A
N290       Cu296   2.073       .  S
C291        C292   1.383       .  A
C291        H294   1.082       .  S
C292        C293   1.385       .  A
C292       C1137   1.478       .  S
C293        H295   1.082       .  S
Cu296       N299   2.071       .  S
Cu297       N307   2.080       .  S
Cu298       N300   2.061       .  S
Cu298       N306   2.061       .  S
N299        N300   1.320       .  A
N299        C303   1.345       .  A
N300        C301   1.344       .  A
C301        C302   1.384       .  A
C301        H304   1.082       .  S
C302        C303   1.387       .  A
C302       C1153   1.478       .  S
C303        H305   1.082       .  S
N306        N307   1.320       .  A
N306        C310   1.338       .  A
N307        C308   1.350       .  A
C308        C309   1.390       .  A
C308        H311   1.082       .  S
C309        C310   1.384       .  A
C309       C1433   1.484       .  S
C310        H312   1.081       .  S
N313        N314   1.320       .  A
N313        C317   1.345       .  A
N313       Cu321   2.077       .  S
N314        C315   1.343       .  A
N314       Cu320   2.060       .  S
C315        C316   1.384       .  A
C315        H318   1.082       .  S
C316        C317   1.388       .  A
C316       C1161   1.480       .  S
C317        H319   1.082       .  S
Cu320       N323   2.060       .  S
Cu321       N331   2.077       .  S
Cu322       N324   2.086       .  S
Cu322       N330   2.087       .  S
N323        N324   1.321       .  A
N323        C327   1.341       .  A
N324        C325   1.348       .  A
C325        C326   1.391       .  A
C325        H328   1.081       .  S
C326        C327   1.384       .  A
C326       C1129   1.484       .  S
C327        H329   1.081       .  S
N330        N331   1.323       .  A
N330        C334   1.348       .  A
N331        C332   1.343       .  A
C332        C333   1.387       .  A
C332        H335   1.081       .  S
C333        C334   1.390       .  A
C333       C1217   1.489       .  S
C334        H336   1.081       .  S
N337        N338   1.324       .  A
N337        C341   1.347       .  A
N337       Cu345   2.092       .  S
N338        C339   1.342       .  A
N338       Cu344   2.062       .  S
C339        C340   1.381       .  A
C339        H342   1.082       .  S
C340        C341   1.388       .  A
C340       C1089   1.479       .  S
C341        H343   1.082       .  S
Cu344       N347   2.061       .  S
Cu345       N355   2.091       .  S
Cu346       N348   2.063       .  S
Cu346       N354   2.063       .  S
N347        N348   1.319       .  A
N347        C351   1.344       .  A
N348        C349   1.343       .  A
C349        C350   1.384       .  A
C349        H352   1.082       .  S
C350        C351   1.384       .  A
C350       C1105   1.473       .  S
C351        H353   1.082       .  S
N354        N355   1.322       .  A
N354        C358   1.339       .  A
N355        C356   1.351       .  A
C356        C357   1.390       .  A
C356        H359   1.082       .  S
C357        C358   1.383       .  A
C357       C1513   1.483       .  S
C358        H360   1.082       .  S
N361        N362   1.321       .  A
N361        C365   1.345       .  A
N361       Cu369   2.073       .  S
N362        C363   1.342       .  A
N362       Cu368   2.064       .  S
C363        C364   1.383       .  A
C363        H366   1.082       .  S
C364        C365   1.385       .  A
C364       C1113   1.475       .  S
C365        H367   1.082       .  S
Cu368       N371   2.065       .  S
Cu369       N379   2.073       .  S
Cu370       N372   2.084       .  S
Cu370       N378   2.084       .  S
N371        N372   1.321       .  A
N371        C375   1.344       .  A
N372        C373   1.346       .  A
C373        C374   1.390       .  A
C373        H376   1.081   1_655  S
C374        C375   1.386       .  A
C374       C1121   1.486       .  S
C375        H377   1.081       .  S
N378        N379   1.322       .  A
N378        C382   1.347       .  A
N379        C380   1.345       .  A
C380        C381   1.386       .  A
C380        H383   1.082       .  S
C381        C382   1.389       .  A
C381       C1169   1.485       .  S
C382        H384   1.082   1_655  S
N385        N386   1.323       .  A
N385        C389   1.346       .  A
N385       Cu393   2.077       .  S
N386        C387   1.342       .  A
N386       Cu392   2.072       .  S
C387        C388   1.384       .  A
C387        H390   1.081       .  S
C388        C389   1.386       .  A
C388       C1145   1.480       .  S
C389        H391   1.082       .  S
Cu392       N395   2.071       .  S
Cu393       N403   2.077       .  S
Cu394       N396   2.059       .  S
Cu394       N402   2.060       .  S
N395        N396   1.320       .  A
N395        C399   1.346       .  A
N396        C397   1.341       .  A
C397        C398   1.382       .  A
C397        H400   1.082       .  S
C398        C399   1.385       .  A
C398       C1073   1.474       .  S
C399        H401   1.082       .  S
N402        N403   1.320       .  A
N402        C406   1.341       .  A
N403        C404   1.346       .  A
C404        C405   1.390       .  A
C404        H407   1.081       .  S
C405        C406   1.386       .  A
C405       C1065   1.485       .  S
C406        H408   1.081       .  S
N409        N410   1.320       .  A
N409        C413   1.341       .  A
N409       Cu417   2.064       .  S
N410        C411   1.346       .  A
N410       Cu416   2.075       .  S
C411        C412   1.390       .  A
C411        H414   1.081       .  S
C412        C413   1.387       .  A
C412       C1049   1.486       .  S
C413        H415   1.081       .  S
Cu416       N419   2.076       .  S
Cu417       N427   2.064       .  S
Cu418       N420   2.067       .  S
Cu418       N426   2.067       .  S
N419        N420   1.322       .  A
N419        C423   1.345       .  A
N420        C421   1.343       .  A
C421        C422   1.382       .  A
C421        H424   1.082       .  S
C422        C423   1.386       .  A
C422       C1081   1.476       .  S
C423        H425   1.082       .  S
N426        N427   1.319       .  A
N426        C430   1.343       .  A
N427        C428   1.343       .  A
C428        C429   1.388       .  A
C428        H431   1.081       .  S
C429        C430   1.388       .  A
C429       C1033   1.484       .  S
C430        H432   1.081       .  S
N433        N434   1.323       .  A
N433        C437   1.349       .  A
N433       Cu441   2.093       .  S
N434        C435   1.340       .  A
N434       Cu440   2.059       .  S
C435        C436   1.380       .  A
C435        H438   1.082       .  S
C436        C437   1.389       .  A
C436       C1097   1.480       .  S
C437        H439   1.082       .  S
Cu440       N443   2.059       .  S
Cu441       N451   2.092       .  S
Cu442       N444   2.068       .  S
Cu442       N450   2.069       .  S
N443        N444   1.318       .  A
N443        C447   1.343       .  A
N444        C445   1.345       .  A
C445        C446   1.387       .  A
C445        H448   1.082       .  S
C446        C447   1.386       .  A
C446       C1009   1.480       .  S
C447        H449   1.082       .  S
N450        N451   1.324       .  A
N450        C454   1.339       .  A
N451        C452   1.352       .  A
C452        C453   1.389       .  A
C452        H455   1.082       .  S
C453        C454   1.380       .  A
C453        C993   1.479       .  S
C454        H456   1.082       .  S
N457        N458   1.320       .  A
N457        C461   1.345   1_554  A
N457       Cu465   2.066       .  S
N458        C459   1.342   1_554  A
N458       Cu464   2.065       .  S
C459        C460   1.386       .  A
C459        H462   1.081       .  S
C460        C461   1.386       .  A
C460       C1041   1.480       .  S
C461        H463   1.082       .  S
Cu464       N467   2.065       .  S
Cu465       N475   2.066       .  S
Cu466       N468   2.081       .  S
Cu466       N474   2.082       .  S
N467        N468   1.321       .  A
N467        C471   1.343       .  A
N468        C469   1.346       .  A
C469        C470   1.387       .  A
C469        H472   1.082       .  S
C470        C471   1.384       .  A
C470       C1017   1.480       .  S
C471        H473   1.082       .  S
N474        N475   1.321       .  A
N474        C478   1.345       .  A
N475        C476   1.343       .  A
C476        C477   1.387       .  A
C476        H479   1.081       .  S
C477        C478   1.391       .  A
C477        C977   1.488       .  S
C478        H480   1.081       .  S
N481        N482   1.320       .  A
N481        C485   1.346       .  A
N481       Cu489   2.071       .  S
N482        C483   1.341       .  A
N482       Cu488   2.060       .  S
C483        C484   1.384       .  A
C483        H486   1.081       .  S
C484        C485   1.388       .  A
C484       C1249   1.479       .  S
C485        H487   1.082       .  S
Cu488       N491   2.060       .  S
Cu489       N499   2.072       .  S
Cu490       N492   2.078       .  S
Cu490       N498   2.080       .  S
N491        N492   1.320       .  A
N491        C495   1.341       .  A
N492        C493   1.348       .  A
C493        C494   1.388       .  A
C493        H496   1.082       .  S
C494        C495   1.383       .  A
C494        C961   1.478       .  S
C495        H497   1.082       .  S
N498        N499   1.323       .  A
N498        C502   1.344       .  A
N499        C500   1.344       .  A
C500        C501   1.385       .  A
C500        H503   1.081       .  S
C501        C502   1.387       .  A
C501        C945   1.483       .  S
C502        H504   1.081       .  S
N505        N506   1.321       .  A
N505        C509   1.346       .  A
N505       Cu513   2.072       .  S
N506        C507   1.342       .  A
N506       Cu512   2.070       .  S
C507        C508   1.387       .  A
C507        H510   1.081       .  S
C508        C509   1.388       .  A
C508        C929   1.484   1_556  S
C509        H511   1.081       .  S
Cu512       N515   2.070       .  S
Cu513       N523   2.072       .  S
Cu514       N516   2.071       .  S
Cu514       N522   2.072       .  S
N515        N516   1.321       .  A
N515        C519   1.344       .  A
N516        C517   1.345       .  A
C517        C518   1.385       .  A
C517        H520   1.082       .  S
C518        C519   1.384       .  A
C518        C969   1.477       .  S
C519        H521   1.082       .  S
N522        N523   1.322       .  A
N522        C526   1.344       .  A
N523        C524   1.344       .  A
C524        C525   1.386       .  A
C524        H527   1.081       .  S
C525        C526   1.386       .  A
C525       C1025   1.481       .  S
C526        H528   1.081       .  S
N529        N530   1.322       .  A
N529        C533   1.347       .  A
N529       Cu537   2.084       .  S
N530        C531   1.343       .  A
N530       Cu536   2.064       .  S
C531        C532   1.384       .  A
C531        H534   1.082       .  S
C532        C533   1.389       .  A
C532       C1193   1.482       .  S
C533        H535   1.082       .  S
Cu536       N539   2.063       .  S
Cu537       N547   2.084       .  S
Cu538       N540   2.068       .  S
Cu538       N546   2.069       .  S
N539        N540   1.321       .  A
N539        C543   1.342       .  A
N540        C541   1.345       .  A
C541        C542   1.384       .  A
C541        H544   1.082       .  S
C542        C543   1.383       .  A
C542        C921   1.472       .  S
C543        H545   1.082       .  S
N546        N547   1.322       .  A
N546        C550   1.343       .  A
N547        C548   1.347       .  A
C548        C549   1.390   1_565  A
C548        H551   1.081   1_565  S
C549        C550   1.387   1_545  A
C549        C897   1.488       .  S
C550        H552   1.081       .  S
N553        N554   1.319       .  A
N553        C557   1.346       .  A
N553       Cu561   2.080       .  S
N554        C555   1.341       .  A
N554       Cu560   2.052       .  S
C555        C556   1.385       .  A
C555        H558   1.081       .  S
C556        C557   1.391       .  A
C556        C937   1.485   1_565  S
C557        H559   1.081       .  S
Cu560       N563   2.052       .  S
Cu561       N571   2.081       .  S
Cu562       N564   2.073       .  S
Cu562       N570   2.074       .  S
N563        N564   1.321       .  A
N563        C567   1.339       .  A
N564        C565   1.347       .  A
C565        C566   1.385       .  A
C565        H568   1.082       .  S
C566        C567   1.379       .  A
C566        C913   1.470       .  S
C567        H569   1.082       .  S
N570        N571   1.323       .  A
N570        C574   1.346       .  A
N571        C572   1.344       .  A
C572        C573   1.386       .  A
C572        H575   1.082       .  S
C573        C574   1.385       .  A
C573        C985   1.481       .  S
C574        H576   1.082       .  S
N577        N578   1.323       .  A
N577        C581   1.347       .  A
N577       Cu585   2.087       .  S
N578        C579   1.343       .  A
N578       Cu584   2.070       .  S
C579        C580   1.384       .  A
C579        H582   1.082       .  S
C580        C581   1.388       .  A
C580       C1417   1.482       .  S
C581        H583   1.082       .  S
Cu584       N587   2.069       .  S
Cu585       N595   2.086       .  S
Cu586       N588   2.054       .  S
Cu586       N594   2.054       .  S
N587        N588   1.319       .  A
N587        C591   1.343       .  A
N588        C589   1.343       .  A
C589        C590   1.385       .  A
C589        H592   1.082       .  S
C590        C591   1.387       .  A
C590        C881   1.478       .  S
C591        H593   1.082       .  S
N594        N595   1.322       .  A
N594        C598   1.339       .  A
N595        C596   1.348       .  A
C596        C597   1.388       .  A
C596        H599   1.082       .  S
C597        C598   1.380       .  A
C597       C1057   1.477       .  S
C598        H600   1.082       .  S
N601        N602   1.320       .  A
N601        C605   1.346       .  A
N601       Cu609   2.077       .  S
N602        C603   1.341       .  A
N602       Cu608   2.061       .  S
C603        C604   1.386       .  A
C603        H606   1.081       .  S
C604        C605   1.390       .  A
C604        C865   1.485       .  S
C605        H607   1.081       .  S
Cu608       N611   2.060       .  S
Cu609       N619   2.078       .  S
Cu610       N612   2.080       .  S
Cu610       N618   2.081       .  S
N611        N612   1.321       .  A
N611        C615   1.342       .  A
N612        C613   1.346       .  A
C613        C614   1.387       .  A
C613        H616   1.082       .  S
C614        C615   1.383       .  A
C614        C889   1.478       .  S
C615        H617   1.082       .  S
N618        N619   1.322       .  A
N618        C622   1.346       .  A
N619        C620   1.344       .  A
C620        C621   1.389       .  A
C620        H623   1.081       .  S
C621        C622   1.390       .  A
C621        C849   1.490       .  S
C622        H624   1.081       .  S
N625        N626   1.324       .  A
N625        C629   1.349       .  A
N625       Cu633   2.096       .  S
N626        C627   1.344       .  A
N626       Cu632   2.075       .  S
C627        C628   1.383       .  A
C627        H630   1.082       .  S
C628        C629   1.389       .  A
C628       C1497   1.484       .  S
C629        H631   1.082       .  S
Cu632       N635   2.073       .  S
Cu633       N643   2.095       .  S
Cu634       N636   2.067       .  S
Cu634       N642   2.068       .  S
N635        N636   1.320       .  A
N635        C639   1.345       .  A
N636        C637   1.344       .  A
C637        C638   1.386       .  A
C637        H640   1.082       .  S
C638        C639   1.387       .  A
C638        C833   1.480       .  S
C639        H641   1.082       .  S
N642        N643   1.323       .  A
N642        C646   1.341       .  A
N643        C644   1.351       .  A
C644        C645   1.390       .  A
C644        H647   1.082       .  S
C645        C646   1.383       .  A
C645       C1001   1.484       .  S
C646        H648   1.082       .  S
N649        N650   1.321       .  A
N649        C653   1.343       .  A
N649       Cu657   2.075       .  S
N650        C651   1.346       .  A
N650       Cu656   2.076       .  S
C651        C652   1.389       .  A
C651        H654   1.081       .  S
C652        C653   1.389       .  A
C652        C873   1.488       .  S
C653        H655   1.081       .  S
Cu656       N659   2.076       .  S
Cu657       N667   2.075       .  S
Cu658       N660   2.069       .  S
Cu658       N666   2.069       .  S
N659        N660   1.322       .  A
N659        C663   1.345       .  A
N660        C661   1.344       .  A
C661        C662   1.383       .  A
C661        H664   1.082       .  S
C662        C663   1.385       .  A
C662        C841   1.476       .  S
C663        H665   1.082       .  S
N666        N667   1.320       .  A
N666        C670   1.343       .  A
N667        C668   1.345       .  A
C668        C669   1.389       .  A
C668        H671   1.081       .  S
C669        C670   1.388       .  A
C669        C817   1.486       .  S
C670        H672   1.081       .  S
N673        N674   1.323       .  A
N673        C677   1.352       .  A
N673       Cu681   2.099       .  S
N674        C675   1.341       .  A
N674       Cu680   2.064       .  S
C675        C676   1.381       .  A
C675        H678   1.082       .  S
C676        C677   1.390       .  A
C676        C905   1.481       .  S
C677        H679   1.082       .  S
Cu680       N683   2.064       .  S
Cu681       N691   2.100       .  S
Cu682       N684   2.070       .  S
Cu682       N690   2.071       .  S
N683        N684   1.319       .  A
N683        C687   1.343       .  A
N684        C685   1.345       .  A
C685        C686   1.388       .  A
C685        H688   1.081       .  S
C686        C687   1.388       .  A
C686        C801   1.483       .  S
C687        H689   1.081       .  S
N690        N691   1.324       .  A
N690        C694   1.344       .  A
N691        C692   1.349       .  A
C692        C693   1.390       .  A
C692        H695   1.082       .  S
C693        C694   1.382       .  A
C693       C1353   1.483       .  S
C694        H696   1.082       .  S
N697        N698   1.322       .  A
N697        C701   1.348       .  A
N697       Cu705   2.078       .  S
N698        C699   1.341       .  A
N698       Cu704   2.064       .  S
C699        C700   1.381       .  A
C699        H702   1.082       .  S
C700        C701   1.386       .  A
C700        C809   1.473       .  S
C701        H703   1.082       .  S
Cu704       N707   2.064       .  S
Cu705       N715   2.080       .  S
Cu706       N708   2.078       .  S
Cu706       N714   2.079       .  S
N707        N708   1.319       .  A
N707        C711   1.342       .  A
N708        C709   1.347       .  A
C709        C710   1.392       .  A
C709        H712   1.081       .  S
C710        C711   1.388       .  A
C710        C785   1.489       .  S
C711        H713   1.081       .  S
N714        N715   1.323       .  A
N714        C718   1.344       .  A
N715        C716   1.345       .  A
C716        C717   1.388       .  A
C716        H719   1.081       .  S
C717        C718   1.387       .  A
C717        C825   1.486       .  S
C718        H720   1.081       .  S
N721        N722   1.322   1_545  A
N721        C725   1.346       .  A
N721       Cu729   2.072   1_545  S
N722        C723   1.343   1_565  A
N722       Cu728   2.079       .  S
C723        C724   1.385       .  A
C723        H726   1.082       .  S
C724        C725   1.385       .  A
C724        C953   1.480       .  S
C725        H727   1.082       .  S
Cu728       N731   2.079       .  S
Cu729       N739   2.072       .  S
Cu730       N732   2.066       .  S
Cu730       N738   2.066       .  S
N731        N732   1.320       .  A
N731        C735   1.346       .  A
N732        C733   1.343       .  A
C733        C734   1.385       .  A
C733        H736   1.082       .  S
C734        C735   1.390       .  A
C734        C769   1.485       .  S
C735        H737   1.082       .  S
N738        N739   1.322       .  A
N738        C742   1.344       .  A
N739        C740   1.343       .  A
C740        C741   1.385       .  A
C740        H743   1.082       .  S
C741        C742   1.383       .  A
C741       C1289   1.475       .  S
C742        H744   1.082       .  S
N745        N746   1.322       .  A
N745        C749   1.350       .  A
N745       Cu753   2.087       .  S
N746        C747   1.341       .  A
N746       Cu752   2.068       .  S
C747        C748   1.382       .  A
C747        H750   1.082       .  S
C748        C749   1.389       .  A
C748        C777   1.481       .  S
C749        H751   1.082       .  S
Cu752       N755   2.068       .  S
Cu753       N763   2.088       .  S
Cu754       N756   2.077       .  S
Cu754       N762   2.078       .  S
N755        N756   1.319       .  A
N755        C759   1.344   1_565  A
N756        C757   1.345       .  A
C757        C758   1.391   1_565  A
C757        H760   1.081       .  S
C758        C759   1.389       .  A
C758        C793   1.490       .  S
C759        H761   1.081       .  S
N762        N763   1.323       .  A
N762        C766   1.345       .  A
N763        C764   1.346       .  A
C764        C765   1.388       .  A
C764        H767   1.082       .  S
C765        C766   1.386       .  A
C765        C857   1.485       .  S
C766        H768   1.082       .  S
C769        C770   1.407       .  A
C769        C774   1.405       .  A
C770        C771   1.400       .  A
C770        H779   1.082       .  S
C771        C772   1.402       .  A
C771        H780   1.084       .  S
C772        C778   1.409       .  A
C772        C773   1.415       .  A
C773        C775   1.400       .  A
C773        C774   1.404       .  A
C774        H781   1.083       .  S
C775        C776   1.394       .  A
C775        H782   1.084       .  S
C776        C777   1.405       .  A
C776        H783   1.083       .  S
C777        C778   1.407       .  A
C778        H784   1.084       .  S
C785        C786   1.407       .  A
C785        C790   1.409       .  A
C786        C787   1.400       .  A
C786        H795   1.081       .  S
C787        C788   1.403       .  A
C787        H796   1.084       .  S
C788        C794   1.406       .  A
C788        C789   1.411       .  A
C789        C791   1.401       .  A
C789        C790   1.403       .  A
C790        H797   1.082       .  S
C791        C792   1.396       .  A
C791        H798   1.084       .  S
C792        C793   1.407       .  A
C792        H799   1.081       .  S
C793        C794   1.411       .  A
C794        H800   1.082       .  S
C801        C802   1.407       .  A
C801        C806   1.406       .  A
C802        C803   1.399       .  A
C802        H811   1.082       .  S
C803        C804   1.402       .  A
C803        H812   1.084       .  S
C804        C810   1.406       .  A
C804        C805   1.414       .  A
C805        C807   1.401       .  A
C805        C806   1.401       .  A
C806        H813   1.083       .  S
C807        C808   1.394       .  A
C807        H814   1.084       .  S
C808        C809   1.403       .  A
C808        H815   1.083       .  S
C809        C810   1.405       .  A
C810        H816   1.084       .  S
C817        C818   1.407       .  A
C817        C822   1.408       .  A
C818        C819   1.396       .  A
C818        H827   1.081       .  S
C819        C820   1.401       .  A
C819        H828   1.084       .  S
C820        C826   1.403       .  A
C820        C821   1.412       .  A
C821        C823   1.402       .  A
C821        C822   1.405       .  A
C822        H829   1.082       .  S
C823        C824   1.398       .  A
C823        H830   1.084       .  S
C824        C825   1.407       .  A
C824        H831   1.082       .  S
C825        C826   1.408       .  A
C826        H832   1.082       .  S
C833        C834   1.405       .  A
C833        C838   1.406       .  A
C834        C835   1.397       .  A
C834        H843   1.082       .  S
C835        C836   1.401       .  A
C835        H844   1.084       .  S
C836        C842   1.403       .  A
C836        C837   1.414       .  A
C837        C839   1.402       .  A
C837        C838   1.404       .  A
C838        H845   1.084       .  S
C839        C840   1.398       .  A
C839        H846   1.084       .  S
C840        C841   1.404       .  A
C840        H847   1.083       .  S
C841        C842   1.404       .  A
C842        H848   1.084       .  S
C849        C850   1.408       .  A
C849        C854   1.409       .  A
C850        C851   1.399       .  A
C850        H859   1.081       .  S
C851        C852   1.402       .  A
C851        H860   1.084       .  S
C852        C858   1.406       .  A
C852        C853   1.412       .  A
C853        C855   1.402       .  A
C853        C854   1.405       .  A
C854        H861   1.082       .  S
C855        C856   1.398       .  A
C855        H862   1.084       .  S
C856        C857   1.406       .  A
C856        H863   1.082       .  S
C857        C858   1.408       .  A
C858        H864   1.083       .  S
C865        C866   1.407       .  A
C865        C870   1.407       .  A
C866        C867   1.400       .  A
C866        H875   1.082       .  S
C867        C868   1.403       .  A
C867        H876   1.084       .  S
C868        C874   1.406       .  A
C868        C869   1.411       .  A
C869        C871   1.399       .  A
C869        C870   1.401       .  A
C870        H877   1.082       .  S
C871        C872   1.395       .  A
C871        H878   1.084       .  S
C872        C873   1.408       .  A
C872        H879   1.080       .  S
C873        C874   1.410       .  A
C874        H880   1.082       .  S
C881        C882   1.406       .  A
C881        C886   1.404       .  A
C882        C883   1.397       .  A
C882        H891   1.082       .  S
C883        C884   1.402       .  A
C883        H892   1.084       .  S
C884        C890   1.402       .  A
C884        C885   1.413       .  A
C885        C887   1.401       .  A
C885        C886   1.401       .  A
C886        H893   1.084       .  S
C887        C888   1.396       .  A
C887        H894   1.084       .  S
C888        C889   1.404       .  A
C888        H895   1.082       .  S
C889        C890   1.406       .  A
C890        H896   1.084       .  S
C897        C898   1.407       .  A
C897        C902   1.407       .  A
C898        C899   1.402       .  A
C898        H907   1.082       .  S
C899        C900   1.403       .  A
C899        H908   1.083       .  S
C900        C906   1.410       .  A
C900        C901   1.414       .  A
C901        C903   1.400       .  A
C901        C902   1.402       .  A
C902        H909   1.082       .  S
C903        C904   1.394       .  A
C903        H910   1.084       .  S
C904        C905   1.405       .  A
C904        H911   1.083       .  S
C905        C906   1.407       .  A
C906        H912   1.084       .  S
C913        C914   1.404       .  A
C913        C918   1.404       .  A
C914        C915   1.392       .  A
C914        H923   1.083       .  S
C915        C916   1.400       .  A
C915        H924   1.084       .  S
C916        C922   1.398       .  A
C916        C917   1.415       .  A
C917        C919   1.403       .  A
C917        C918   1.403       .  A
C918        H925   1.084       .  S
C919        C920   1.398       .  A
C919        H926   1.084       .  S
C920        C921   1.404       .  A
C920        H927   1.083       .  S
C921        C922   1.402       .  A
C922        H928   1.084       .  S
C929        C930   1.407       .  A
C929        C934   1.407       .  A
C930        C931   1.398       .  A
C930        H939   1.082   1_554  S
C931        C932   1.403       .  A
C931        H940   1.084       .  S
C932        C938   1.404       .  A
C932        C933   1.411       .  A
C933        C935   1.401       .  A
C933        C934   1.401       .  A
C934        H941   1.082       .  S
C935        C936   1.396       .  A
C935        H942   1.084       .  S
C936        C937   1.406       .  A
C936        H943   1.081   1_545  S
C937        C938   1.410       .  A
C938        H944   1.082       .  S
C945        C946   1.406       .  A
C945        C950   1.409       .  A
C946        C947   1.394       .  A
C946        H955   1.081       .  S
C947        C948   1.400       .  A
C947        H956   1.084       .  S
C948        C954   1.400       .  A
C948        C949   1.412       .  A
C949        C951   1.404       .  A
C949        C950   1.405       .  A
C950        H957   1.083       .  S
C951        C952   1.400       .  A
C951        H958   1.084       .  S
C952        C953   1.406       .  A
C952        H959   1.083       .  S
C953        C954   1.404       .  A
C954        H960   1.083       .  S
C961        C962   1.404       .  A
C961        C966   1.405       .  A
C962        C963   1.400       .  A
C962        H971   1.083       .  S
C963        C964   1.404       .  A
C963        H972   1.083       .  S
C964        C970   1.405       .  A
C964        C965   1.414       .  A
C965        C967   1.402       .  A
C965        C966   1.401       .  A
C966        H973   1.084       .  S
C967        C968   1.396       .  A
C967        H974   1.084       .  S
C968        C969   1.404       .  A
C968        H975   1.083       .  S
C969        C970   1.406       .  A
C970        H976   1.084       .  S
C977        C978   1.409       .  A
C977        C982   1.407       .  A
C978        C979   1.398       .  A
C978        H987   1.081       .  S
C979        C980   1.401       .  A
C979        H988   1.084       .  S
C980        C986   1.406       .  A
C980        C981   1.413       .  A
C981        C983   1.401       .  A
C981        C982   1.403       .  A
C982        H989   1.082       .  S
C983        C984   1.395       .  A
C983        H990   1.084       .  S
C984        C985   1.405       .  A
C984        H991   1.082       .  S
C985        C986   1.407       .  A
C986        H992   1.084       .  S
C993        C994   1.404       .  A
C993        C998   1.408       .  A
C994        C995   1.392       .  A
C994       H1003   1.083       .  S
C995        C996   1.399       .  A
C995       H1004   1.084       .  S
C996       C1002   1.401       .  A
C996        C997   1.414       .  A
C997        C999   1.406       .  A
C997        C998   1.412       .  A
C998       H1005   1.084       .  S
C999       C1000   1.405       .  A
C999       H1006   1.083       .  S
C1000      C1001   1.406       .  A
C1000      H1007   1.083       .  S
C1001      C1002   1.404       .  A
C1002      H1008   1.084       .  S
C1009      C1010   1.405       .  A
C1009      C1014   1.406       .  A
C1010      C1011   1.397       .  A
C1010      H1019   1.082       .  S
C1011      C1012   1.402       .  A
C1011      H1020   1.084       .  S
C1012      C1018   1.404       .  A
C1012      C1013   1.413       .  A
C1013      C1015   1.402       .  A
C1013      C1014   1.403       .  A
C1014      H1021   1.084       .  S
C1015      C1016   1.397       .  A
C1015      H1022   1.084       .  S
C1016      C1017   1.405       .  A
C1016      H1023   1.082       .  S
C1017      C1018   1.407       .  A
C1018      H1024   1.084       .  S
C1025      C1026   1.406       .  A
C1025      C1030   1.406       .  A
C1026      C1027   1.396       .  A
C1026      H1035   1.082       .  S
C1027      C1028   1.401       .  A
C1027      H1036   1.084       .  S
C1028      C1034   1.402       .  A
C1028      C1029   1.412       .  A
C1029      C1031   1.401       .  A
C1029      C1030   1.403       .  A
C1030      H1037   1.083       .  S
C1031      C1032   1.396       .  A
C1031      H1038   1.084       .  S
C1032      C1033   1.407       .  A
C1032      H1039   1.081       .  S
C1033      C1034   1.407       .  A
C1034      H1040   1.082       .  S
C1041      C1042   1.406       .  A
C1041      C1046   1.404       .  A
C1042      C1043   1.399       .  A
C1042      H1051   1.082       .  S
C1043      C1044   1.403       .  A
C1043      H1052   1.084       .  S
C1044      C1050   1.405       .  A
C1044      C1045   1.412       .  A
C1045      C1047   1.398       .  A
C1045      C1046   1.399       .  A
C1046      H1053   1.083       .  S
C1047      C1048   1.393       .  A
C1047      H1054   1.084       .  S
C1048      C1049   1.408       .  A
C1048      H1055   1.080       .  S
C1049      C1050   1.409       .  A
C1050      H1056   1.082       .  S
C1057      C1058   1.406       .  A
C1057      C1062   1.404       .  A
C1058      C1059   1.394       .  A
C1058      H1067   1.083       .  S
C1059      C1060   1.400       .  A
C1059      H1068   1.084       .  S
C1060      C1066   1.401       .  A
C1060      C1061   1.413       .  A
C1061      C1063   1.401       .  A
C1061      C1062   1.405       .  A
C1062      H1069   1.084       .  S
C1063      C1064   1.398       .  A
C1063      H1070   1.084       .  S
C1064      C1065   1.407       .  A
C1064      H1071   1.081       .  S
C1065      C1066   1.407       .  A
C1066      H1072   1.082       .  S
C1073      C1074   1.405       .  A
C1073      C1078   1.404       .  A
C1074      C1075   1.394       .  A
C1074      H1083   1.083       .  S
C1075      C1076   1.400       .  A
C1075      H1084   1.084       .  S
C1076      C1082   1.401       .  A
C1076      C1077   1.415       .  A
C1077      C1079   1.402       .  A
C1077      C1078   1.405       .  A
C1078      H1085   1.084       .  S
C1079      C1080   1.398       .  A
C1079      H1086   1.084       .  S
C1080      C1081   1.405       .  A
C1080      H1087   1.083       .  S
C1081      C1082   1.403       .  A
C1082      H1088   1.084       .  S
C1089      C1090   1.407       .  A
C1089      C1094   1.403       .  A
C1090      C1091   1.398   1_556  A
C1090      H1099   1.082       .  S
C1091      C1092   1.401       .  A
C1091      H1100   1.084       .  S
C1092      C1098   1.406       .  A
C1092      C1093   1.415   1_554  A
C1093      C1095   1.399       .  A
C1093      C1094   1.403       .  A
C1094      H1101   1.084       .  S
C1095      C1096   1.394   1_556  A
C1095      H1102   1.084       .  S
C1096      C1097   1.407       .  A
C1096      H1103   1.082       .  S
C1097      C1098   1.405       .  A
C1098      H1104   1.084       .  S
C1105      C1106   1.403       .  A
C1105      C1110   1.403       .  A
C1106      C1107   1.398       .  A
C1106      H1115   1.083       .  S
C1107      C1108   1.403       .  A
C1107      H1116   1.084       .  S
C1108      C1114   1.403       .  A
C1108      C1109   1.414       .  A
C1109      C1111   1.401       .  A
C1109      C1110   1.401       .  A
C1110      H1117   1.084       .  S
C1111      C1112   1.395       .  A
C1111      H1118   1.084       .  S
C1112      C1113   1.404       .  A
C1112      H1119   1.083       .  S
C1113      C1114   1.405       .  A
C1114      H1120   1.084       .  S
C1121      C1122   1.408       .  A
C1121      C1126   1.406       .  A
C1122      C1123   1.398       .  A
C1122      H1131   1.082       .  S
C1123      C1124   1.401       .  A
C1123      H1132   1.084       .  S
C1124      C1130   1.406   1_656  A
C1124      C1125   1.413   1_656  A
C1125      C1127   1.400       .  A
C1125      C1126   1.403   1_454  A
C1126      H1133   1.083   1_656  S
C1127      C1128   1.395       .  A
C1127      H1134   1.084       .  S
C1128      C1129   1.407       .  A
C1128      H1135   1.082       .  S
C1129      C1130   1.407       .  A
C1130      H1136   1.083   1_554  S
C1137      C1138   1.404       .  A
C1137      C1142   1.407   1_554  A
C1138      C1139   1.396       .  A
C1138      H1147   1.083       .  S
C1139      C1140   1.402   1_554  A
C1139      H1148   1.084       .  S
C1140      C1146   1.401       .  A
C1140      C1141   1.413       .  A
C1141      C1143   1.403       .  A
C1141      C1142   1.404       .  A
C1142      H1149   1.084       .  S
C1143      C1144   1.399       .  A
C1143      H1150   1.084       .  S
C1144      C1145   1.405       .  A
C1144      H1151   1.083       .  S
C1145      C1146   1.406       .  A
C1146      H1152   1.083       .  S
C1153      C1154   1.404       .  A
C1153      C1158   1.406       .  A
C1154      C1155   1.396       .  A
C1154      H1163   1.083       .  S
C1155      C1156   1.401       .  A
C1155      H1164   1.084       .  S
C1156      C1162   1.403       .  A
C1156      C1157   1.414       .  A
C1157      C1159   1.402       .  A
C1157      C1158   1.404       .  A
C1158      H1165   1.084       .  S
C1159      C1160   1.398       .  A
C1159      H1166   1.084       .  S
C1160      C1161   1.406       .  A
C1160      H1167   1.083       .  S
C1161      C1162   1.405       .  A
C1162      H1168   1.083       .  S
C1169      C1170   1.406   1_655  A
C1169      C1174   1.408       .  A
C1170      C1171   1.398       .  A
C1170      H1179   1.082       .  S
C1171      C1172   1.403       .  A
C1171      H1180   1.084       .  S
C1172      C1178   1.405       .  A
C1172      C1173   1.412   1_455  A
C1173      C1175   1.403       .  A
C1173      C1174   1.406       .  A
C1174      H1181   1.083       .  S
C1175      C1176   1.400       .  A
C1175      H1182   1.084       .  S
C1176      C1177   1.407   1_655  A
C1176      H1183   1.082       .  S
C1177      C1178   1.410       .  A
C1178      H1184   1.082       .  S
C1185      C1186   1.407       .  A
C1185      C1190   1.405       .  A
C1186      C1187   1.396   1_556  A
C1186      H1195   1.082       .  S
C1187      C1188   1.400       .  A
C1187      H1196   1.084       .  S
C1188      C1194   1.404       .  A
C1188      C1189   1.414   1_554  A
C1189      C1191   1.401       .  A
C1189      C1190   1.406       .  A
C1190      H1197   1.084       .  S
C1191      C1192   1.397       .  A
C1191      H1198   1.084       .  S
C1192      C1193   1.407   1_556  A
C1192      H1199   1.082       .  S
C1193      C1194   1.405       .  A
C1194      H1200   1.084       .  S
C1201      C1202   1.403       .  A
C1201      C1206   1.402       .  A
C1202      C1203   1.402       .  A
C1202      H1211   1.083       .  S
C1203      C1204   1.405       .  A
C1203      H1212   1.084       .  S
C1204      C1210   1.407       .  A
C1204      C1205   1.415       .  A
C1205      C1207   1.400       .  A
C1205      C1206   1.400       .  A
C1206      H1213   1.085       .  S
C1207      C1208   1.393       .  A
C1207      H1214   1.084       .  S
C1208      C1209   1.403       .  A
C1208      H1215   1.083       .  S
C1209      C1210   1.407       .  A
C1210      H1216   1.084       .  S
C1217      C1218   1.408       .  A
C1217      C1222   1.409       .  A
C1218      C1219   1.397       .  A
C1218      H1227   1.081       .  S
C1219      C1220   1.400       .  A
C1219      H1228   1.084       .  S
C1220      C1226   1.406   1_455  A
C1220      C1221   1.413   1_455  A
C1221      C1223   1.401       .  A
C1221      C1222   1.407   1_655  A
C1222      H1229   1.083   1_455  S
C1223      C1224   1.398       .  A
C1223      H1230   1.084       .  S
C1224      C1225   1.408       .  A
C1224      H1231   1.082       .  S
C1225      C1226   1.406       .  A
C1226      H1232   1.083   1_655  S
C1233      C1234   1.408       .  A
C1233      C1238   1.405       .  A
C1234      C1235   1.399       .  A
C1234      H1243   1.082       .  S
C1235      C1236   1.401       .  A
C1235      H1244   1.084   1_556  S
C1236      C1242   1.408       .  A
C1236      C1237   1.414       .  A
C1237      C1239   1.398   1_455  A
C1237      C1238   1.404       .  A
C1238      H1245   1.083   1_455  S
C1239      C1240   1.394       .  A
C1239      H1246   1.084       .  S
C1240      C1241   1.409       .  A
C1240      H1247   1.081       .  S
C1241      C1242   1.408   1_655  A
C1242      H1248   1.083   1_556  S
C1249      C1250   1.405       .  A
C1249      C1254   1.406       .  A
C1250      C1251   1.399       .  A
C1250      H1259   1.082       .  S
C1251      C1252   1.403       .  A
C1251      H1260   1.084       .  S
C1252      C1258   1.403       .  A
C1252      C1253   1.412       .  A
C1253      C1255   1.401       .  A
C1253      C1254   1.400       .  A
C1254      H1261   1.083       .  S
C1255      C1256   1.395       .  A
C1255      H1262   1.084       .  S
C1256      C1257   1.405       .  A
C1256      H1263   1.082   1_556  S
C1257      C1258   1.408       .  A
C1258      H1264   1.084       .  S
C1265      C1266   1.404       .  A
C1265      C1270   1.402       .  A
C1266      C1267   1.401       .  A
C1266      H1275   1.083       .  S
C1267      C1268   1.405       .  A
C1267      H1276   1.084       .  S
C1268      C1274   1.405       .  A
C1268      C1269   1.413       .  A
C1269      C1271   1.399       .  A
C1269      C1270   1.397       .  A
C1270      H1277   1.084       .  S
C1271      C1272   1.392       .  A
C1271      H1278   1.084   1_554  S
C1272      C1273   1.405       .  A
C1272      H1279   1.082       .  S
C1273      C1274   1.408       .  A
C1274      H1280   1.084       .  S
C1281      C1282   1.408       .  A
C1281      C1286   1.406       .  A
C1282      C1283   1.400       .  A
C1282      H1291   1.081       .  S
C1283      C1284   1.403       .  A
C1283      H1292   1.084       .  S
C1284      C1290   1.405       .  A
C1284      C1285   1.412       .  A
C1285      C1287   1.400       .  A
C1285      C1286   1.399       .  A
C1286      H1293   1.081       .  S
C1287      C1288   1.393       .  A
C1287      H1294   1.084       .  S
C1288      C1289   1.403       .  A
C1288      H1295   1.083       .  S
C1289      C1290   1.407       .  A
C1290      H1296   1.084       .  S
C1297      C1298   1.407       .  A
C1297      C1302   1.410       .  A
C1298      C1299   1.395       .  A
C1298      H1307   1.081       .  S
C1299      C1300   1.399       .  A
C1299      H1308   1.084       .  S
C1300      C1306   1.400       .  A
C1300      C1301   1.413       .  A
C1301      C1303   1.405       .  A
C1301      C1302   1.405       .  A
C1302      H1309   1.082       .  S
C1303      C1304   1.400       .  A
C1303      H1310   1.083       .  S
C1304      C1305   1.403       .  A
C1304      H1311   1.083       .  S
C1305      C1306   1.403       .  A
C1306      H1312   1.084       .  S
C1313      C1314   1.404       .  A
C1313      C1318   1.404       .  A
C1314      C1315   1.395       .  A
C1314      H1323   1.083       .  S
C1315      C1316   1.401       .  A
C1315      H1324   1.084       .  S
C1316      C1322   1.401       .  A
C1316      C1317   1.414       .  A
C1317      C1319   1.403       .  A
C1317      C1318   1.406       .  A
C1318      H1325   1.084       .  S
C1319      C1320   1.400       .  A
C1319      H1326   1.084       .  S
C1320      C1321   1.406       .  A
C1320      H1327   1.082       .  S
C1321      C1322   1.406       .  A
C1322      H1328   1.083       .  S
C1329      C1330   1.407   1_455  A
C1329      C1334   1.409       .  A
C1330      C1331   1.396       .  A
C1330      H1339   1.081       .  S
C1331      C1332   1.401       .  A
C1331      H1340   1.084       .  S
C1332      C1338   1.401       .  A
C1332      C1333   1.411   1_655  A
C1333      C1335   1.402       .  A
C1333      C1334   1.403       .  A
C1334      H1341   1.082       .  S
C1335      C1336   1.398       .  A
C1335      H1342   1.084       .  S
C1336      C1337   1.406   1_455  A
C1336      H1343   1.081   1_545  S
C1337      C1338   1.409       .  A
C1338      H1344   1.082       .  S
C1345      C1346   1.406       .  A
C1345      C1350   1.408       .  A
C1346      C1347   1.401       .  A
C1346      H1355   1.082       .  S
C1347      C1348   1.404       .  A
C1347      H1356   1.084       .  S
C1348      C1354   1.407       .  A
C1348      C1349   1.413       .  A
C1349      C1351   1.403       .  A
C1349      C1350   1.405       .  A
C1350      H1357   1.083       .  S
C1351      C1352   1.398       .  A
C1351      H1358   1.084       .  S
C1352      C1353   1.404       .  A
C1352      H1359   1.083       .  S
C1353      C1354   1.409       .  A
C1354      H1360   1.084       .  S
C1361      C1362   1.407       .  A
C1361      C1366   1.409       .  A
C1362      C1363   1.394       .  A
C1362      H1371   1.082       .  S
C1363      C1364   1.400       .  A
C1363      H1372   1.084       .  S
C1364      C1370   1.402       .  A
C1364      C1365   1.413       .  A
C1365      C1367   1.405       .  A
C1365      C1366   1.409       .  A
C1366      H1373   1.084       .  S
C1367      C1368   1.403       .  A
C1367      H1374   1.083       .  S
C1368      C1369   1.406       .  A
C1368      H1375   1.083       .  S
C1369      C1370   1.406       .  A
C1370      H1376   1.083       .  S
C1377      C1378   1.403       .  A
C1377      C1382   1.403       .  A
C1378      C1379   1.401       .  A
C1378      H1387   1.083       .  S
C1379      C1380   1.405       .  A
C1379      H1388   1.083       .  S
C1380      C1386   1.406       .  A
C1380      C1381   1.414       .  A
C1381      C1383   1.401       .  A
C1381      C1382   1.400       .  A
C1382      H1389   1.085       .  S
C1383      C1384   1.395       .  A
C1383      H1390   1.084       .  S
C1384      C1385   1.404       .  A
C1384      H1391   1.083       .  S
C1385      C1386   1.407       .  A
C1386      H1392   1.084       .  S
C1393      C1394   1.405       .  A
C1393      C1398   1.408       .  A
C1394      C1395   1.397       .  A
C1394      H1403   1.082       .  S
C1395      C1396   1.402       .  A
C1395      H1404   1.084       .  S
C1396      C1402   1.404       .  A
C1396      C1397   1.413       .  A
C1397      C1399   1.402   1_455  A
C1397      C1398   1.405       .  A
C1398      H1405   1.083       .  S
C1399      C1400   1.399       .  A
C1399      H1406   1.084       .  S
C1400      C1401   1.408       .  A
C1400      H1407   1.081       .  S
C1401      C1402   1.408   1_655  A
C1402      H1408   1.082       .  S
C1409      C1410   1.404       .  A
C1409      C1414   1.407       .  A
C1410      C1411   1.398       .  A
C1410      H1419   1.083       .  S
C1411      C1412   1.403       .  A
C1411      H1420   1.084       .  S
C1412      C1418   1.404       .  A
C1412      C1413   1.413       .  A
C1413      C1415   1.403       .  A
C1413      C1414   1.404       .  A
C1414      H1421   1.084       .  S
C1415      C1416   1.398       .  A
C1415      H1422   1.084       .  S
C1416      C1417   1.405       .  A
C1416      H1423   1.083       .  S
C1417      C1418   1.407       .  A
C1418      H1424   1.083       .  S
C1425      C1426   1.403       .  A
C1425      C1430   1.407       .  A
C1426      C1427   1.390       .  A
C1426      H1435   1.083       .  S
C1427      C1428   1.399       .  A
C1427      H1436   1.084       .  S
C1428      C1434   1.397       .  A
C1428      C1429   1.413       .  A
C1429      C1431   1.406       .  A
C1429      C1430   1.410       .  A
C1430      H1437   1.084       .  S
C1431      C1432   1.404       .  A
C1431      H1438   1.083       .  S
C1432      C1433   1.407       .  A
C1432      H1439   1.082       .  S
C1433      C1434   1.404       .  A
C1434      H1440   1.083       .  S
C1441      C1442   1.406       .  A
C1441      C1446   1.408       .  A
C1442      C1443   1.397       .  A
C1442      H1451   1.082       .  S
C1443      C1444   1.402       .  A
C1443      H1452   1.084       .  S
C1444      C1450   1.401       .  A
C1444      C1445   1.412       .  A
C1445      C1447   1.403       .  A
C1445      C1446   1.402       .  A
C1446      H1453   1.083       .  S
C1447      C1448   1.398       .  A
C1447      H1454   1.084       .  S
C1448      C1449   1.403       .  A
C1448      H1455   1.083       .  S
C1449      C1450   1.406       .  A
C1450      H1456   1.084       .  S
C1457      C1458   1.408   1_655  A
C1457      C1462   1.407       .  A
C1458      C1459   1.398       .  A
C1458      H1467   1.081       .  S
C1459      C1460   1.401       .  A
C1459      H1468   1.084       .  S
C1460      C1466   1.405       .  A
C1460      C1461   1.413   1_455  A
C1461      C1463   1.401       .  A
C1461      C1462   1.402       .  A
C1462      H1469   1.082       .  S
C1463      C1464   1.395       .  A
C1463      H1470   1.084       .  S
C1464      C1465   1.406   1_655  A
C1464      H1471   1.082       .  S
C1465      C1466   1.406       .  A
C1466      H1472   1.084       .  S
C1473      C1474   1.407       .  A
C1473      C1478   1.405       .  A
C1474      C1475   1.396       .  A
C1474      H1483   1.082       .  S
C1475      C1476   1.401       .  A
C1475      H1484   1.084       .  S
C1476      C1482   1.402       .  A
C1476      C1477   1.413       .  A
C1477      C1479   1.400   1_455  A
C1477      C1478   1.402       .  A
C1478      H1485   1.083       .  S
C1479      C1480   1.396       .  A
C1479      H1486   1.084       .  S
C1480      C1481   1.407       .  A
C1480      H1487   1.081       .  S
C1481      C1482   1.407   1_655  A
C1482      H1488   1.083       .  S
C1489      C1490   1.407       .  A
C1489      C1494   1.407       .  A
C1490      C1491   1.397       .  A
C1490      H1499   1.082       .  S
C1491      C1492   1.400       .  A
C1491      H1500   1.084       .  S
C1492      C1498   1.407       .  A
C1492      C1493   1.415       .  A
C1493      C1495   1.402       .  A
C1493      C1494   1.408       .  A
C1494      H1501   1.084       .  S
C1495      C1496   1.399       .  A
C1495      H1502   1.084       .  S
C1496      C1497   1.406       .  A
C1496      H1503   1.083       .  S
C1497      C1498   1.405       .  A
C1498      H1504   1.084       .  S
C1505      C1506   1.406       .  A
C1505      C1510   1.405       .  A
C1506      C1507   1.404       .  A
C1506      H1515   1.083       .  S
C1507      C1508   1.406       .  A
C1507      H1516   1.083       .  S
C1508      C1514   1.411       .  A
C1508      C1509   1.413       .  A
C1509      C1511   1.398       .  A
C1509      C1510   1.399       .  A
C1510      H1517   1.083       .  S
C1511      C1512   1.391       .  A
C1511      H1518   1.084       .  S
C1512      C1513   1.406       .  A
C1512      H1519   1.082       .  S
C1513      C1514   1.409       .  A
C1514      H1520   1.084       .  S
C1521      C1522   1.406       .  A
C1521      C1526   1.407       .  A
C1522      C1523   1.395       .  A
C1522      H1531   1.082       .  S
C1523      C1524   1.400       .  A
C1523      H1532   1.084       .  S
C1524      C1530   1.401       .  A
C1524      C1525   1.414       .  A
C1525      C1527   1.403       .  A
C1525      C1526   1.406       .  A
C1526      H1533   1.084       .  S
C1527      C1528   1.399       .  A
C1527      H1534   1.083       .  S
C1528      C1529   1.404       .  A
C1528      H1535   1.083       .  S
C1529      C1530   1.404       .  A
C1530      H1536   1.084       .  S
