geometry optimzed in LAMMPS
_audit_creation_date              2020-11-30 
_audit_creation_method            'lammps2cif' 
_symmetry_space_group_name_H-M    'P1' 
_symmetry_Int_Tables_number       1 
_symmetry_cell_setting            triclinic 
loop_ 
_symmetry_equiv_pos_as_xyz 
  x,y,z 
_cell_length_a                    45.88977443 
_cell_length_b                    46.02371158081975 
_cell_length_c                    45.939678409992794 
_cell_angle_alpha                 89.79417137179358 
_cell_angle_beta                  90.06196963534722 
_cell_angle_gamma                 89.90446296452897 
loop_ 
_atom_site_label 
_atom_site_type_symbol 
_atom_site_fract_x 
_atom_site_fract_y 
_atom_site_fract_z 
_atom_site_charge 
Fe1        Fe  0.83855389  0.30909800  0.83199504     1.65800
Fe2        Fe  0.88497943  0.28423541  0.88414450     1.73200
Fe3        Fe  0.87351560  0.35796574  0.87517088     1.54400
O4          O  0.87540808  0.37308455  0.83171704    -0.81900
O5          O  0.87628219  0.30119960  0.92430491    -0.80200
O6          O  0.85954062  0.33668611  0.80409535    -0.84400
O7          O  0.80895106  0.34009754  0.84476977    -0.79200
O8          O  0.91849922  0.35180801  0.87282825    -0.81000
O9          O  0.84663350  0.26027666  0.88810581    -0.83800
C10         C  0.80689510  0.35806090  0.86547079     0.97000
C11         C  0.87142837  0.36127287  0.80695006     1.04400
O12         O  0.86589005  0.31709292  0.86380069    -1.12700
O13         O  0.89652064  0.26213134  0.84657881    -0.75200
O14         O  0.86319318  0.27644734  0.81459233    -0.78700
O15         O  0.82895114  0.36709539  0.87956028    -0.79400
C16         C  0.88475531  0.26080501  0.82165843     0.95900
O17         O  0.81538594  0.28031396  0.85683681    -0.77300
O18         O  0.92508742  0.30459507  0.88284714    -0.82500
C19         C  0.87329709  0.32609004  0.93550696     0.98500
C20         C  0.93492508  0.32990309  0.87751101     1.04400
O21         O  0.87322600  0.34911168  0.92002575    -0.78200
C22         C  0.82138884  0.26210980  0.87676768     1.02700
Fe23       Fe  0.68319616  0.15960175  0.83444447     1.65800
Fe24       Fe  0.70996581  0.11370209  0.88584126     1.73200
Fe25       Fe  0.63531627  0.12153065  0.87716522     1.54400
O26         O  0.62205943  0.16526569  0.87831296    -0.81900
O27         O  0.69246057  0.07280949  0.88157384    -0.80200
O28         O  0.65499005  0.18915643  0.85169868    -0.84400
O29         O  0.65201595  0.14264801  0.80793981    -0.79200
O30         O  0.64376470  0.12514564  0.92145601    -0.81000
O31         O  0.73324534  0.10587716  0.84777756    -0.83800
C32         C  0.62984715  0.12660478  0.81015633     0.97000
C33         C  0.63269211  0.18863585  0.86783471     1.04400
O34         O  0.67607991  0.13153868  0.86587491    -1.12700
O35         O  0.73166468  0.15277473  0.89243635    -0.75200
O36         O  0.71561157  0.18061487  0.85632021    -0.78700
O37         O  0.62085118  0.11656925  0.83430018    -0.79400
C38         C  0.73179399  0.17647690  0.87822475     0.95900
O39         O  0.71241257  0.13333172  0.81379328    -0.77300
O40         O  0.69163242  0.11928646  0.92624257    -0.82500
C41         C  0.66740221  0.06163237  0.87825429     0.98500
C42         C  0.66660425  0.12387674  0.93702372     1.04400
O43         O  0.64416473  0.07685896  0.87734694    -0.78200
C44         C  0.73105818  0.11459109  0.82158771     1.02700
Fe45       Fe  0.83549992  0.16073255  0.69221049     1.65800
Fe46       Fe  0.88379056  0.10897894  0.71412909     1.73200
Fe47       Fe  0.87070221  0.12040950  0.64051877     1.54400
O48         O  0.82603810  0.11949845  0.62977983    -0.81900
O49         O  0.92347412  0.11502167  0.69431797    -0.80200
O50         O  0.80474278  0.14692676  0.66345919    -0.84400
O51         O  0.85348443  0.18924883  0.66347026    -0.79200
O52         O  0.86781698  0.07562075  0.64743139    -0.81000
O53         O  0.89313769  0.14574784  0.73863635    -0.83800
C54         C  0.86892253  0.18804405  0.64073807     0.97000
C55         C  0.80348692  0.13067372  0.64144384     1.04400
O56         O  0.86331634  0.12986232  0.68223733    -1.12700
O57         O  0.84592590  0.10114258  0.73767563    -0.75200
O58         O  0.81502011  0.13543033  0.72257611    -0.78700
O59         O  0.87572969  0.16422744  0.62846914    -0.79400
C60         C  0.82118330  0.11355953  0.73828034     0.95900
O61         O  0.86207236  0.17903445  0.72254113    -0.77300
O62         O  0.87771633  0.06921071  0.69453098    -0.82500
C63         C  0.93257577  0.11878632  0.66851038     0.98500
C64         C  0.87133018  0.05929211  0.66958531     1.04400
O65         O  0.91578646  0.11975189  0.64644460    -0.78200
C66         C  0.88284902  0.17131203  0.73888296     1.02700
Fe67       Fe  0.65731414  0.33680566  0.80717440     1.65800
Fe68       Fe  0.61159998  0.38876383  0.78455803     1.73200
Fe69       Fe  0.62049196  0.37468898  0.85723027     1.54400
O70         O  0.62079719  0.32975595  0.86820025    -0.81900
O71         O  0.62361192  0.42705520  0.80327165    -0.80200
O72         O  0.63150607  0.30665559  0.82684476    -0.84400
O73         O  0.68187017  0.34128982  0.84451785    -0.79200
O74         O  0.57583323  0.37119993  0.84985108    -0.81000
O75         O  0.65030458  0.38992328  0.76011192    -0.83800
C76         C  0.68533348  0.36249827  0.86157947     0.97000
C77         C  0.62196849  0.30665651  0.85272949     1.04400
O78         O  0.62935647  0.36683362  0.81637938    -1.12700
O79         O  0.59778404  0.35229219  0.76229576    -0.75200
O80         O  0.63830935  0.32683118  0.76826431    -0.78700
O81         O  0.66472124  0.38006037  0.86709470    -0.79400
C82         C  0.61506999  0.33238980  0.75448532     0.95900
O83         O  0.68359432  0.36633848  0.78646532    -0.77300
O84         O  0.57140313  0.38975364  0.80505060    -0.82500
C85         C  0.62305597  0.43644313  0.82915810     0.98500
C86         C  0.56033104  0.38070724  0.82881832     1.04400
O87         O  0.61890676  0.41984948  0.85106469    -0.78200
C88         C  0.67660915  0.38197431  0.76462891     1.02700
Fe89       Fe  0.81608935  0.33301021  0.66527368     1.65800
Fe90       Fe  0.78793545  0.37815165  0.61431983     1.73200
Fe91       Fe  0.86228429  0.37204140  0.62267111     1.54400
O92         O  0.87713422  0.37437782  0.66622552    -0.81900
O93         O  0.80469898  0.36882955  0.57365812    -0.80200
O94         O  0.84038837  0.35742709  0.69307212    -0.84400
O95         O  0.85100168  0.30747676  0.65432047    -0.79200
O96         O  0.85322727  0.41620895  0.62537041    -0.81000
O97         O  0.76577879  0.33864288  0.61253744    -0.83800
C98         C  0.86889385  0.30651617  0.63345990     0.97000
C99         C  0.86436358  0.37077037  0.69065125     1.04400
O100        O  0.82210789  0.36124313  0.63394476    -1.12700
O101        O  0.76697123  0.38952144  0.65296535    -0.75200
O102        O  0.78017251  0.35330870  0.68200937    -0.78700
O103        O  0.87457337  0.32851482  0.61768874    -0.79400
C104        C  0.76509941  0.37574047  0.67689404     0.95900
O105        O  0.79064347  0.30694544  0.63957345    -0.77300
O106        O  0.80599554  0.41942258  0.61399924    -0.82500
C107        C  0.83015967  0.36903014  0.56282572     0.98500
C108        C  0.83041662  0.43108306  0.62000948     1.04400
O109        O  0.85297393  0.37206002  0.57827294    -0.78200
C110        C  0.77021033  0.31290044  0.62190982     1.02700
Fe111      Fe  0.65611276  0.18855091  0.66544614     1.65800
Fe112      Fe  0.61226571  0.21405035  0.61309321     1.73200
Fe113      Fe  0.61741972  0.14133399  0.62610704     1.54400
O114        O  0.66120013  0.13090012  0.61970789    -0.81900
O115        O  0.57082602  0.19578069  0.61240855    -0.80200
O116        O  0.67799441  0.14955330  0.66056875    -0.84400
O117        O  0.62844634  0.17015371  0.69480748    -0.79200
O118        O  0.61537146  0.14804962  0.58112300    -0.81000
O119        O  0.59992458  0.23676978  0.64984126    -0.83800
C120        C  0.61841815  0.14449334  0.69416932     0.97000
C121        C  0.68188179  0.13521628  0.63747989     1.04400
O122        O  0.62801609  0.18140214  0.63488058    -1.12700
O123        O  0.65256008  0.23543542  0.61184187    -0.75200
O124        O  0.68404733  0.20756512  0.63625911    -0.78700
O125        O  0.61774758  0.12939978  0.67079678    -0.79400
C126        C  0.67855058  0.22903179  0.61958289     0.95900
O127        O  0.63974273  0.22877680  0.67589029    -0.77300
O128        O  0.62336713  0.19531567  0.57443623    -0.82500
C129        C  0.55873213  0.17268785  0.62195107     0.98500
C130        C  0.62118825  0.16968597  0.56481736     1.04400
O131        O  0.57336226  0.15060827  0.63035201    -0.78200
C132        C  0.61738533  0.24379967  0.66992167     1.02700
Fe133      Fe  0.15758285  0.16139433  0.68598551     1.65800
Fe134      Fe  0.10796498  0.11365487  0.71134684     1.73200
Fe135      Fe  0.11905300  0.12125543  0.63768902     1.54400
O136        O  0.11282159  0.16494115  0.62529602    -0.81900
O137        O  0.10792562  0.07303813  0.69214734    -0.80200
O138        O  0.14733898  0.18717522  0.65073995    -0.84400
O139        O  0.18795358  0.13880084  0.66297987    -0.79200
O140        O  0.07427120  0.11923262  0.64553647    -0.81000
O141        O  0.14636273  0.10204236  0.73245536    -0.83800
C142        C  0.18705074  0.12606166  0.63862993     0.97000
C143        C  0.12751221  0.18751305  0.63160834     1.04400
O144        O  0.12813560  0.13186787  0.67824957    -1.12700
O145        O  0.10521794  0.15204169  0.73519190    -0.75200
O146        O  0.12911780  0.18571662  0.70996439    -0.78700
O147        O  0.16329164  0.12124610  0.62497183    -0.79400
C148        C  0.11258253  0.17834497  0.73077711     0.95900
O149        O  0.17317010  0.14094919  0.72253030    -0.77300
O150        O  0.06791754  0.12336370  0.69359646    -0.82500
C151        C  0.11534510  0.06155818  0.66813428     0.98500
C152        C  0.05799503  0.12203222  0.66781638     1.04400
O153        O  0.12323294  0.07676418  0.64626942    -0.78200
C154        C  0.16901799  0.11735806  0.73615147     1.02700
Fe155      Fe  0.31358055  0.15806835  0.82857611     1.65800
Fe156      Fe  0.28559536  0.11391889  0.87957805     1.73200
Fe157      Fe  0.35945793  0.11991843  0.87123006     1.54400
O158        O  0.37412674  0.11896525  0.82732636    -0.81900
O159        O  0.30202221  0.12493992  0.91963599    -0.80200
O160        O  0.33525989  0.13156771  0.80086988    -0.84400
O161        O  0.35082535  0.18186763  0.83700669    -0.79200
O162        O  0.35105161  0.07590964  0.86766797    -0.81000
O163        O  0.26280494  0.15374829  0.87897765    -0.83800
C164        C  0.36563210  0.18460686  0.86007494     0.97000
C165        C  0.36041979  0.12051617  0.80306432     1.04400
O166        O  0.31951188  0.13023883  0.85990628    -1.12700
O167        O  0.26542840  0.10112014  0.84121939    -0.75200
O168        O  0.27550226  0.13967256  0.81406079    -0.78700
O169        O  0.36994735  0.16346035  0.87729329    -0.79400
C170        C  0.26144487  0.11646620  0.81857372     0.95900
O171        O  0.29081401  0.18532686  0.85519633    -0.77300
O172        O  0.30465531  0.07273376  0.88213841    -0.82500
C173        C  0.32723092  0.12369300  0.93095891     0.98500
C174        C  0.32894259  0.06104176  0.87521874     1.04400
O175        O  0.35002047  0.11904150  0.91581582    -0.78200
C176        C  0.26853089  0.17964168  0.87048096     1.02700
Fe177      Fe  0.15852362  0.31366615  0.82733831     1.65800
Fe178      Fe  0.11400201  0.28789118  0.87967404     1.73200
Fe179      Fe  0.12028261  0.36112193  0.86861806     1.54400
O180        O  0.16408704  0.37190390  0.87392709    -0.81900
O181        O  0.07329101  0.30749419  0.88266126    -0.80200
O182        O  0.18439637  0.34899823  0.83658131    -0.84400
O183        O  0.13371095  0.33666040  0.79874881    -0.79200
O184        O  0.11988167  0.35260328  0.91365269    -0.81000
O185        O  0.09990683  0.26778961  0.84200313    -0.83800
C186        C  0.12093833  0.36095224  0.80037086     0.97000
C187        C  0.18601460  0.36579661  0.85826277     1.04400
O188        O  0.13069481  0.32092117  0.85857655    -1.12700
O189        O  0.15271225  0.26366782  0.87925007    -0.75200
O190        O  0.18494806  0.28922530  0.85383734    -0.78700
O191        O  0.11837692  0.37480716  0.82434173    -0.79400
C192        C  0.17858099  0.26779219  0.87007208     0.95900
O193        O  0.13730093  0.27737415  0.81278189    -0.77300
O194        O  0.12645442  0.30488750  0.91913174    -0.82500
C195        C  0.06132583  0.33130220  0.87495031     0.98500
C196        C  0.12464363  0.33032948  0.92963504     1.04400
O197        O  0.07593283  0.35286039  0.86559445    -0.78200
C198        C  0.11395289  0.26394163  0.81857715     1.02700
Fe199      Fe  0.33370795  0.33481343  0.80626821     1.65800
Fe200      Fe  0.38287209  0.38443494  0.78300088     1.73200
Fe201      Fe  0.37324502  0.37235753  0.85640242     1.54400
O202        O  0.32933948  0.37831461  0.86726629    -0.81900
O203        O  0.42313732  0.38330539  0.80323960    -0.80200
O204        O  0.30637322  0.34633868  0.83931126    -0.84400
O205        O  0.35434711  0.30424157  0.83077660    -0.79200
O206        O  0.37447156  0.41745590  0.84944143    -0.81000
O207        O  0.39411823  0.34635449  0.76143543    -0.83800
C208        C  0.36836619  0.30445588  0.85446175     0.97000
C209        C  0.30625581  0.36591373  0.85845756     1.04400
O210        O  0.36350669  0.36390076  0.81530017    -1.12700
O211        O  0.34495817  0.38885828  0.75803118    -0.75200
O212        O  0.31075914  0.36296811  0.78037798    -0.78700
O213        O  0.37408895  0.32781020  0.86829414    -0.79400
C214        C  0.31860910  0.38071714  0.76076027     0.95900
O215        O  0.35598722  0.31843686  0.77166290    -0.77300
O216        O  0.37381803  0.42416182  0.80134924    -0.82500
C217        C  0.43378721  0.37614812  0.82780200     0.98500
C218        C  0.37306345  0.43404434  0.82716521     1.04400
O219        O  0.41795557  0.36887480  0.84934700    -0.78200
C220        C  0.37946778  0.32321795  0.75814203     1.02700
Fe221      Fe  0.18117862  0.33796284  0.66084784     1.65800
Fe222      Fe  0.20859962  0.38502902  0.61075096     1.73200
Fe223      Fe  0.13395800  0.37503549  0.61646781     1.54400
O224        O  0.12276549  0.33053093  0.61301708    -0.81900
O225        O  0.18982312  0.42528369  0.61553827    -0.80200
O226        O  0.15434866  0.30777846  0.64220999    -0.84400
O227        O  0.14918584  0.35442199  0.68668934    -0.79200
O228        O  0.14419386  0.37336519  0.57236036    -0.81000
O229        O  0.23098367  0.39208692  0.64962312    -0.83800
C230        C  0.12671490  0.36997188  0.68368837     0.97000
C231        C  0.13383245  0.30736815  0.62378441     1.04400
O232        O  0.17452919  0.36611597  0.62928280    -1.12700
O233        O  0.23093531  0.34653228  0.60405196    -0.75200
O234        O  0.21437678  0.31800708  0.63945550    -0.78700
O235        O  0.11771716  0.37882426  0.65901745    -0.79400
C236        C  0.23101605  0.32273880  0.61803931     0.95900
O237        O  0.20955142  0.36426947  0.68284139    -0.77300
O238        O  0.19204165  0.38038545  0.56926488    -0.82500
C239        C  0.16430904  0.43579841  0.61799660     0.98500
C240        C  0.16746946  0.37566469  0.55758316     1.04400
O241        O  0.14147575  0.41996970  0.61794242    -0.78200
C242        C  0.22856544  0.38281104  0.67560031     1.02700
Fe243      Fe  0.33337068  0.18387033  0.66257182     1.65800
Fe244      Fe  0.37925107  0.21219515  0.61209197     1.73200
Fe245      Fe  0.37209358  0.13814506  0.61897551     1.54400
O246        O  0.37340940  0.12175938  0.66192757    -0.81900
O247        O  0.37023187  0.19677507  0.57119329    -0.80200
O248        O  0.35536710  0.15678022  0.69006850    -0.84400
O249        O  0.30616506  0.15141388  0.64852321    -0.79200
O250        O  0.41653444  0.14658153  0.62315004    -0.81000
O251        O  0.34051925  0.23518411  0.60978937    -0.83800
C252        C  0.30574578  0.13332465  0.62783898     0.97000
C253        C  0.36828715  0.13274868  0.68685041     1.04400
O254        O  0.36164526  0.17805643  0.63116453    -1.12700
O255        O  0.39040587  0.23220949  0.65077471    -0.75200
O256        O  0.35593397  0.21737691  0.68122645    -0.78700
O257        O  0.32834301  0.12663971  0.61328537    -0.79400
C258        C  0.37775964  0.23305771  0.67526555     0.95900
O259        O  0.30892302  0.21205451  0.63819812    -0.77300
O260        O  0.42005459  0.19363842  0.61225535    -0.82500
C261        C  0.37007030  0.17186228  0.55957258     0.98500
C262        C  0.43165166  0.16934043  0.61860495     1.04400
O263        O  0.37268520  0.14860587  0.57450347    -0.78200
C264        C  0.31504048  0.23184910  0.62000534     1.02700
Fe265      Fe  0.30811708  0.83491202  0.83564326     1.65800
Fe266      Fe  0.28379391  0.88434914  0.88488242     1.73200
Fe267      Fe  0.35793936  0.87412117  0.87434280     1.54400
O268        O  0.37057993  0.83017720  0.87735500    -0.81900
O269        O  0.30320619  0.92435889  0.88247571    -0.80200
O270        O  0.33664538  0.80560466  0.85313624    -0.84400
O271        O  0.33779092  0.85120959  0.80667740    -0.79200
O272        O  0.35035523  0.87184703  0.91863423    -0.81000
O273        O  0.26176332  0.89407297  0.84639194    -0.83800
C274        C  0.35938499  0.86823254  0.80718526     0.97000
C275        C  0.35905454  0.80644067  0.86907564     1.04400
O276        O  0.31663886  0.86464585  0.86495638    -1.12700
O277        O  0.25900886  0.84730345  0.89101530    -0.75200
O278        O  0.27714943  0.81489133  0.86033312    -0.78700
O279        O  0.37007756  0.87819955  0.83063803    -0.79400
C280        C  0.25950302  0.82209857  0.88012892     0.95900
O281        O  0.27780448  0.86052792  0.81542985    -0.77300
O282        O  0.30226306  0.87638323  0.92495181    -0.82500
C283        C  0.32840237  0.93482619  0.87855427     0.98500
C284        C  0.32784735  0.87216761  0.93471552     1.04400
O285        O  0.35066347  0.91896540  0.87396275    -0.78200
C286        C  0.26169939  0.88207760  0.82149954     1.02700
Fe287      Fe  0.16515484  0.68165643  0.83871545     1.65800
Fe288      Fe  0.11330895  0.70928856  0.88379753     1.73200
Fe289      Fe  0.12144389  0.63494791  0.87723441     1.54400
O290        O  0.11828771  0.62240816  0.83334870    -0.81900
O291        O  0.11659544  0.69211584  0.92514051    -0.80200
O292        O  0.14911164  0.65187012  0.81006127    -0.84400
O293        O  0.19192045  0.65233791  0.85852527    -0.79200
O294        O  0.07684952  0.64379280  0.87528335    -0.81000
O295        O  0.15134870  0.73205086  0.89203279    -0.83800
C296        C  0.18918596  0.62990276  0.87413032     0.97000
C297        C  0.13042191  0.63172353  0.81017353     1.04400
O298        O  0.13321366  0.67528752  0.86661962    -1.12700
O299        O  0.10832629  0.73082962  0.84431817    -0.75200
O300        O  0.14280113  0.71261049  0.81557656    -0.78700
O301        O  0.16451293  0.61983615  0.88166583    -0.79400
C302        C  0.12216374  0.73025073  0.82038303     0.95900
O303        O  0.18509119  0.71267752  0.86338003    -0.77300
O304        O  0.07240551  0.69172610  0.87796831    -0.82500
C305        C  0.12051754  0.66729150  0.93670526     0.98500
C306        C  0.06123285  0.66662373  0.87563561     1.04400
O307        O  0.12271501  0.64408808  0.92175423    -0.78200
C308        C  0.17717473  0.73095017  0.88227449     1.02700
Fe309      Fe  0.16462387  0.83701033  0.68225108     1.65800
Fe310      Fe  0.11402469  0.88218516  0.71111545     1.73200
Fe311      Fe  0.12013724  0.87516828  0.63682369     1.54400
O312        O  0.16334763  0.87761857  0.62042831    -0.81900
O313        O  0.07281421  0.87282068  0.69602772    -0.80200
O314        O  0.19146954  0.86080117  0.65631505    -0.84400
O315        O  0.15207783  0.81043176  0.64866015    -0.79200
O316        O  0.12323551  0.91958284  0.64501785    -0.81000
O317        O  0.11359128  0.84296038  0.73436803    -0.83800
C318        C  0.13051938  0.80928860  0.63153108     0.97000
C319        C  0.18826959  0.87408107  0.63238918     1.04400
O320        O  0.13275723  0.86490121  0.67673306    -1.12700
O321        O  0.15304240  0.89417727  0.73048781    -0.75200
O322        O  0.18251412  0.85855689  0.71681609    -0.78700
O323        O  0.11485089  0.83137097  0.62567023    -0.79400
C324        C  0.17721156  0.88085687  0.73191197     0.95900
O325        O  0.14048523  0.81134069  0.70949076    -0.77300
O326        O  0.11236035  0.92323635  0.69224462    -0.82500
C327        C  0.06092273  0.87361465  0.67106601     0.98500
C328        C  0.11773719  0.93469670  0.66754575     1.04400
O329        O  0.07567768  0.87529303  0.64761280    -0.78200
C330        C  0.12360085  0.81739220  0.73042235     1.02700
Fe331      Fe  0.33154855  0.66014880  0.81450451     1.65800
Fe332      Fe  0.38209241  0.61348945  0.78730214     1.73200
Fe333      Fe  0.37355223  0.62033032  0.86179007     1.54400
O334        O  0.37798325  0.66407207  0.87436443    -0.81900
O335        O  0.37945484  0.57248508  0.80538898    -0.80200
O336        O  0.34720356  0.68798087  0.84527479    -0.84400
O337        O  0.30367525  0.64008349  0.84276008    -0.79200
O338        O  0.41810894  0.62092250  0.85308193    -0.81000
O339        O  0.34351076  0.60447236  0.76519639    -0.83800
C340        C  0.30586358  0.62450680  0.86536968     0.97000
C341        C  0.36600831  0.68746278  0.86537801     1.04400
O342        O  0.36249828  0.63128133  0.82120310    -1.12700
O343        O  0.38669858  0.65233677  0.76437238    -0.75200
O344        O  0.35539982  0.68313747  0.78462160    -0.78700
O345        O  0.33028354  0.61728356  0.87635858    -0.79400
C346        C  0.37472367  0.67720699  0.76585433     0.95900
O347        O  0.31200290  0.63672994  0.78237989    -0.77300
O348        O  0.42299362  0.62032207  0.80487540    -0.82500
C349        C  0.37389905  0.56085466  0.82987775     0.98500
C350        C  0.43382797  0.62167849  0.83031266     1.04400
O351        O  0.37091019  0.57577401  0.85302357    -0.78200
C352        C  0.31840163  0.61613957  0.76542214     1.02700
Fe353      Fe  0.32906201  0.81508824  0.66003912     1.65800
Fe354      Fe  0.38016198  0.78729336  0.61422560     1.73200
Fe355      Fe  0.37272460  0.86168704  0.62132661     1.54400
O356        O  0.32948708  0.87701290  0.61763244    -0.81900
O357        O  0.42116350  0.80411150  0.62093999    -0.80200
O358        O  0.30186323  0.84396278  0.63981188    -0.84400
O359        O  0.34473286  0.84558089  0.68837886    -0.79200
O360        O  0.37085373  0.85321950  0.57686337    -0.81000
O361        O  0.38460254  0.76492819  0.65358890    -0.83800
C362        C  0.36385361  0.86535394  0.68815615     0.97000
C363        C  0.30468937  0.86679041  0.62474478     1.04400
O364        O  0.36073842  0.82137369  0.63182668    -1.12700
O365        O  0.34180238  0.76548234  0.60501742    -0.75200
O366        O  0.30937361  0.78350391  0.63587906    -0.78700
O367        O  0.37646697  0.87397026  0.66503321    -0.79400
C368        C  0.31635168  0.76624982  0.61569041     0.95900
O369        O  0.35210816  0.78473020  0.68345000    -0.77300
O370        O  0.37751318  0.80531750  0.57301375    -0.82500
C371        C  0.43263505  0.82904121  0.62327879     0.98500
C372        C  0.37308426  0.83020957  0.56171861     1.04400
O373        O  0.41746496  0.85225308  0.62281024    -0.78200
C374        C  0.37217532  0.76653648  0.67829223     1.02700
Fe375      Fe  0.18660589  0.66187988  0.66152294     1.65800
Fe376      Fe  0.21094135  0.61278348  0.61196040     1.73200
Fe377      Fe  0.13677912  0.62249145  0.62276185     1.54400
O378        O  0.12460292  0.61979376  0.66696618    -0.81900
O379        O  0.19220896  0.61981218  0.57178488    -0.80200
O380        O  0.15884891  0.64412290  0.69116213    -0.84400
O381        O  0.15618967  0.69029669  0.64611758    -0.79200
O382        O  0.14440577  0.57783246  0.62472484    -0.81000
O383        O  0.23459016  0.65065095  0.60505382    -0.83800
C384        C  0.13467905  0.68972796  0.62898828     0.97000
C385        C  0.13632513  0.62841788  0.69058389     1.04400
O386        O  0.17805864  0.63224647  0.63204711    -1.12700
O387        O  0.23397319  0.60370752  0.65003519    -0.75200
O388        O  0.21857545  0.63766148  0.68065821    -0.78700
O389        O  0.12430799  0.66626486  0.61874698    -0.79400
C390        C  0.23461476  0.61612432  0.67466193     0.95900
O391        O  0.21566095  0.68297169  0.63545584    -0.77300
O392        O  0.19189510  0.57248344  0.61609165    -0.82500
C393        C  0.16667202  0.62337267  0.56172102     0.98500
C394        C  0.16692554  0.56197966  0.62155051     1.04400
O395        O  0.14405527  0.62345703  0.57778939    -0.78200
C396        C  0.23323888  0.67612995  0.61542019     1.02700
Fe397      Fe  0.83081838  0.83568573  0.68481736     1.65800
Fe398      Fe  0.88041949  0.88214863  0.71125203     1.73200
Fe399      Fe  0.87411802  0.87193631  0.63764989     1.54400
O400        O  0.87377530  0.82691947  0.62644236    -0.81900
O401        O  0.87289373  0.92239692  0.69332366    -0.80200
O402        O  0.85399143  0.80403096  0.66473370    -0.84400
O403        O  0.80758334  0.84442800  0.64752333    -0.79200
O404        O  0.91843738  0.86696594  0.64706001    -0.81000
O405        O  0.84103490  0.88617621  0.73350933    -0.83800
C406        C  0.80777589  0.86569248  0.63013411     0.97000
C407        C  0.86830292  0.80378192  0.64117106     1.04400
O408        O  0.86223224  0.86324440  0.67777132    -1.12700
O409        O  0.88945643  0.84337795  0.73287033    -0.75200
O410        O  0.84757700  0.82151037  0.72369834    -0.78700
O411        O  0.83091314  0.87975617  0.62466771    -0.79400
C412        C  0.87066882  0.82402391  0.73857335     0.95900
O413        O  0.80664003  0.86647735  0.70580847    -0.77300
O414        O  0.92174484  0.88044028  0.69344848    -0.82500
C415        C  0.87327759  0.93295617  0.66773124     0.98500
C416        C  0.93351509  0.87315654  0.66950605     1.04400
O417        O  0.87606935  0.91701970  0.64516905    -0.78200
C418        C  0.81432432  0.88100010  0.72790974     1.02700
Fe419      Fe  0.83164061  0.68082651  0.83958245     1.65800
Fe420      Fe  0.88091969  0.70891887  0.88664610     1.73200
Fe421      Fe  0.87423009  0.63457286  0.87905016     1.54400
O422        O  0.83086619  0.62168352  0.88657944    -0.81900
O423        O  0.92207914  0.69110070  0.88325519    -0.80200
O424        O  0.80619913  0.64695497  0.85340640    -0.84400
O425        O  0.85285002  0.65584673  0.80981752    -0.79200
O426        O  0.87629208  0.64359840  0.92351472    -0.81000
O427        O  0.88841920  0.73124664  0.84785459    -0.83800
C428        C  0.86724848  0.63242667  0.81127126     0.97000
C429        C  0.80721814  0.62837989  0.87367389     1.04400
O430        O  0.86247889  0.67476374  0.86845208    -1.12700
O431        O  0.84181519  0.73122731  0.89189660    -0.75200
O432        O  0.80817162  0.70712635  0.86682227    -0.78700
O433        O  0.87415597  0.62030886  0.83536451    -0.79400
C434        C  0.81558330  0.72761584  0.88365632     0.95900
O435        O  0.85094370  0.71633405  0.82136283    -0.77300
O436        O  0.87532181  0.69179520  0.92764479    -0.82500
C437        C  0.93370078  0.66680801  0.87710567     0.98500
C438        C  0.87523731  0.66655468  0.93885171     1.04400
O439        O  0.91864436  0.64375524  0.87383469    -0.78200
C440        C  0.87157861  0.73383091  0.82609263     1.02700
Fe441      Fe  0.68556469  0.83498202  0.83532116     1.65800
Fe442      Fe  0.71206945  0.88425575  0.88360071     1.73200
Fe443      Fe  0.63758444  0.87466747  0.87603727     1.54400
O444        O  0.62441007  0.87936413  0.83198954    -0.81900
O445        O  0.69479440  0.87883297  0.92431491    -0.80200
O446        O  0.65649185  0.85298189  0.80692838    -0.84400
O447        O  0.65617855  0.80657502  0.85219555    -0.79200
O448        O  0.64536917  0.91930936  0.87563900    -0.81000
O449        O  0.73536609  0.84592297  0.89053587    -0.83800
C450        C  0.63466739  0.80741343  0.86920992     0.97000
C451        C  0.63510115  0.87027751  0.80799763     1.04400
O452        O  0.67836053  0.86473586  0.86507015    -1.12700
O453        O  0.73362456  0.89235359  0.84491325    -0.75200
O454        O  0.71639079  0.85904216  0.81462891    -0.78700
O455        O  0.62430554  0.83105382  0.87907382    -0.79400
C456        C  0.73288778  0.88025844  0.82020806     0.95900
O457        O  0.71588206  0.81395127  0.86010026    -0.77300
O458        O  0.69344668  0.92477105  0.87929432    -0.82500
C459        C  0.67023588  0.87371005  0.93579828     0.98500
C460        C  0.66795936  0.93524837  0.87681280     1.04400
O461        O  0.64690820  0.87181595  0.92073546    -0.78200
C462        C  0.73375260  0.82049323  0.88000556     1.02700
Fe463      Fe  0.80905425  0.65644545  0.66466320     1.65800
Fe464      Fe  0.78450085  0.60962975  0.61311202     1.73200
Fe465      Fe  0.85869561  0.61751495  0.62528011     1.54400
O466        O  0.87181588  0.66121693  0.62265955    -0.81900
O467        O  0.80312743  0.56891620  0.61552823    -0.80200
O468        O  0.84025182  0.68492589  0.65074066    -0.84400
O469        O  0.83633692  0.63711359  0.69398150    -0.79200
O470        O  0.85183008  0.61948869  0.58042782    -0.81000
O471        O  0.76111857  0.59924964  0.65066220    -0.83800
C472        C  0.85911206  0.62170507  0.69312028     0.97000
C473        C  0.86212567  0.68448831  0.63406129     1.04400
O474        O  0.81746473  0.62776763  0.63428553    -1.12700
O475        O  0.76087419  0.64792002  0.60789188    -0.75200
O476        O  0.78015719  0.67897523  0.63932170    -0.78700
O477        O  0.87090655  0.61373402  0.66935242    -0.79400
C478        C  0.76204855  0.67289312  0.61944836     0.95900
O479        O  0.77663163  0.63204965  0.68245800    -0.77300
O480        O  0.80371818  0.61802095  0.57338638    -0.82500
C481        C  0.82767757  0.55764993  0.62154891     0.98500
C482        C  0.82959362  0.62038560  0.56384755     1.04400
O483        O  0.85033875  0.57291247  0.62613598    -0.78200
C484        C  0.76038650  0.61095669  0.67565237     1.02700
Fe485      Fe  0.66303710  0.65959705  0.81349550     1.65800
Fe486      Fe  0.61240017  0.61218435  0.78785864     1.73200
Fe487      Fe  0.62084630  0.62187217  0.86214629     1.54400
O488        O  0.66444079  0.61742009  0.87610999    -0.81900
O489        O  0.57163281  0.61770547  0.80576190    -0.80200
O490        O  0.69093327  0.64111455  0.84307434    -0.84400
O491        O  0.64702728  0.68879723  0.84284525    -0.79200
O492        O  0.62138201  0.57740200  0.85469192    -0.81000
O493        O  0.60547222  0.65073352  0.76537211    -0.83800
C494        C  0.62959954  0.68866143  0.86412047     0.97000
C495        C  0.68887458  0.62533271  0.86557992     1.04400
O496        O  0.63202369  0.63115078  0.82120198    -1.12700
O497        O  0.65045436  0.60399885  0.76466222    -0.75200
O498        O  0.68306411  0.63458453  0.78262524    -0.78700
O499        O  0.61829300  0.66556287  0.87425948    -0.79400
C500        C  0.67599407  0.61451128  0.76528140     0.95900
O501        O  0.63887870  0.68110517  0.78271752    -0.77300
O502        O  0.61731489  0.57181547  0.80656107    -0.82500
C503        C  0.56065839  0.62251820  0.83060677     0.98500
C504        C  0.62044886  0.56157490  0.83208532     1.04400
O505        O  0.57615788  0.62437081  0.85352349    -0.78200
C506        C  0.61774708  0.67542282  0.76590180     1.02700
Fe507      Fe  0.66124565  0.81208698  0.66411115     1.65800
Fe508      Fe  0.61174004  0.78425315  0.61648930     1.73200
Fe509      Fe  0.62074162  0.85865297  0.62201628     1.54400
O510        O  0.61664803  0.87326200  0.66535436    -0.81900
O511        O  0.61561680  0.80080729  0.57486271    -0.80200
O512        O  0.64618638  0.84420533  0.69062805    -0.84400
O513        O  0.69019023  0.83898975  0.64370310    -0.79200
O514        O  0.57587926  0.85051777  0.62293426    -0.81000
O515        O  0.65043483  0.76151465  0.60905661    -0.83800
C516        C  0.68880315  0.86083356  0.62698261     0.97000
C517        C  0.62847018  0.86516402  0.68917294     1.04400
O518        O  0.63112575  0.81836327  0.63414268    -1.12700
O519        O  0.60568539  0.76305685  0.65603515    -0.75200
O520        O  0.63593750  0.78389076  0.68750155    -0.78700
O521        O  0.66468551  0.87183869  0.61855095    -0.79400
C522        C  0.61634661  0.76553277  0.68145857     0.95900
O523        O  0.68070492  0.77876835  0.64238108    -0.77300
O524        O  0.57070682  0.80239382  0.62154769    -0.82500
C525        C  0.62043213  0.82526844  0.56294998     0.98500
C526        C  0.55996886  0.82784907  0.62300966     1.04400
O527        O  0.62288113  0.84859816  0.57763581    -0.78200
C528        C  0.67510392  0.76172285  0.62164928     1.02700
Fe529      Fe  0.84123463  0.30938192  0.16114603     1.65800
Fe530      Fe  0.88985601  0.28488003  0.11307371     1.73200
Fe531      Fe  0.87946693  0.35776572  0.12246121     1.54400
O532        O  0.83499918  0.37056662  0.12587890    -0.81900
O533        O  0.93017455  0.30179918  0.12191039    -0.80200
O534        O  0.81080921  0.32973784  0.13630208    -0.84400
O535        O  0.84878358  0.34682811  0.18510276    -0.79200
O536        O  0.87218583  0.35056388  0.07825670    -0.81000
O537        O  0.89201717  0.26078152  0.15201953    -0.83800
C538        C  0.87125813  0.36259387  0.18765870     0.97000
C539        C  0.81135458  0.35584728  0.12758230     1.04400
O540        O  0.87040984  0.31736814  0.13187670    -1.12700
O541        O  0.85151937  0.26426468  0.10169454    -0.75200
O542        O  0.82853263  0.27018597  0.14353123    -0.78700
O543        O  0.88824861  0.36704873  0.16628280    -0.79400
C544        C  0.83245917  0.25653408  0.11996127     0.95900
O545        O  0.87119723  0.28825424  0.18602614    -0.77300
O546        O  0.88858172  0.30514642  0.07269756    -0.82500
C547        C  0.94043733  0.32722677  0.11914124     0.98500
C548        C  0.87876279  0.32894086  0.06224590     1.04400
O549        O  0.92428454  0.34976675  0.11738080    -0.78200
C550        C  0.88507629  0.26565397  0.17853639     1.02700
Fe551      Fe  0.81402558  0.33506014  0.33699728     1.65800
Fe552      Fe  0.78850720  0.38235425  0.38662139     1.73200
Fe553      Fe  0.86226053  0.37480315  0.37595715     1.54400
O554        O  0.87404637  0.33097256  0.38187995    -0.81900
O555        O  0.80786343  0.42299745  0.38721346    -0.80200
O556        O  0.84923406  0.30933275  0.34666108    -0.84400
O557        O  0.83702260  0.35778228  0.30671209    -0.79200
O558        O  0.85408436  0.37547138  0.42089151    -0.81000
O559        O  0.76771540  0.39431714  0.34819956    -0.83800
C560        C  0.86141419  0.37057514  0.30746954     0.97000
C561        C  0.86747314  0.30852597  0.36721493     1.04400
O562        O  0.82171915  0.36446694  0.36648030    -1.12700
O563        O  0.76456238  0.34388141  0.38899691    -0.75200
O564        O  0.79047848  0.31061132  0.36558752    -0.78700
O565        O  0.87502216  0.37557586  0.33132305    -0.79400
C566        C  0.76944002  0.31759459  0.38192514     0.95900
O567        O  0.77715350  0.35513180  0.32186434    -0.77300
O568        O  0.80586022  0.37192977  0.42657085    -0.82500
C569        C  0.83203826  0.43472253  0.38054061     0.98500
C570        C  0.83154613  0.37220686  0.43684357     1.04400
O571        O  0.85403592  0.41958178  0.37281727    -0.78200
C572        C  0.76373673  0.37881627  0.32575937     1.02700
Fe573      Fe  0.83223507  0.16006621  0.31135663     1.65800
Fe574      Fe  0.88156852  0.11116547  0.28589906     1.73200
Fe575      Fe  0.87405059  0.12173564  0.35985965     1.54400
O576        O  0.88055331  0.16562369  0.36993090    -0.81900
O577        O  0.87893272  0.07122739  0.30605106    -0.80200
O578        O  0.84871979  0.18889684  0.34140786    -0.84400
O579        O  0.80408971  0.14194103  0.34021530    -0.79200
O580        O  0.91871859  0.11971300  0.35026283    -0.81000
O581        O  0.84286299  0.10111788  0.26555271    -0.83800
C582        C  0.80626132  0.12870585  0.36419708     0.97000
C583        C  0.86849297  0.18883366  0.36071901     1.04400
O584        O  0.86266489  0.13092276  0.31906182    -1.12700
O585        O  0.88609568  0.14862248  0.26108843    -0.75200
O586        O  0.85666250  0.18135904  0.28110528    -0.78700
O587        O  0.83072678  0.12174509  0.37542975    -0.79400
C588        C  0.87552403  0.17407240  0.26244468     0.95900
O589        O  0.81198845  0.13537921  0.27999270    -0.77300
O590        O  0.92263731  0.11881184  0.30194832    -0.82500
C591        C  0.87268033  0.06123397  0.33106347     0.98500
C592        C  0.93396126  0.12012722  0.32708800     1.04400
O593        O  0.86935657  0.07728308  0.35332106    -0.78200
C594        C  0.81804012  0.11315799  0.26491912     1.02700
Fe595      Fe  0.69662763  0.15708877  0.16070680     1.65800
Fe596      Fe  0.71711264  0.10918476  0.11081173     1.73200
Fe597      Fe  0.64476161  0.12247559  0.12483844     1.54400
O598        O  0.63812786  0.11423995  0.17000273    -0.81900
O599        O  0.69637115  0.11567509  0.07158093    -0.80200
O600        O  0.65750479  0.15531349  0.18178160    -0.84400
O601        O  0.67938420  0.18937545  0.13569018    -0.79200
O602        O  0.64939942  0.07730380  0.12063184    -0.81000
O603        O  0.74114152  0.14671549  0.10229728    -0.83800
C604        C  0.65297015  0.19065598  0.12720312     0.97000
C605        C  0.64583925  0.13202928  0.18958600     1.04400
O606        O  0.68620843  0.12947997  0.13114216    -1.12700
O607        O  0.74011077  0.10141745  0.14959870    -0.75200
O608        O  0.71359799  0.12301155  0.18410288    -0.78700
O609        O  0.63615900  0.16822752  0.12719891    -0.79400
C610        C  0.73441664  0.10640933  0.17637510     0.95900
O611        O  0.73753582  0.16616129  0.14580919    -0.77300
O612        O  0.69718655  0.06955637  0.11606352    -0.82500
C613        C  0.67143199  0.12414633  0.06275255     0.98500
C614        C  0.67120807  0.06032277  0.11791137     1.04400
O615        O  0.64982081  0.12822052  0.07985801    -0.78200
C616        C  0.75026692  0.16395652  0.12165641     1.02700
Fe617      Fe  0.66191912  0.33440284  0.19236129     1.65800
Fe618      Fe  0.61269232  0.38424345  0.21511375     1.73200
Fe619      Fe  0.62552150  0.37457124  0.14147025     1.54400
O620        O  0.66977358  0.37423493  0.12988234    -0.81900
O621        O  0.57282744  0.37691206  0.19578258    -0.80200
O622        O  0.69313513  0.35395907  0.16743265    -0.84400
O623        O  0.64959797  0.30761843  0.15926493    -0.79200
O624        O  0.63001219  0.41875581  0.14924912    -0.81000
O625        O  0.60643979  0.34647717  0.23950102    -0.83800
C626        C  0.63283931  0.30818287  0.13744266     0.97000
C627        C  0.69308012  0.36738128  0.14334818     1.04400
O628        O  0.63323657  0.36445338  0.18290994    -1.12700
O629        O  0.65037913  0.39379864  0.23823861    -0.75200
O630        O  0.67877440  0.35652329  0.22676979    -0.78700
O631        O  0.62013879  0.33120958  0.12873846    -0.79400
C632        C  0.67373826  0.37934727  0.24114955     0.95900
O633        O  0.63362816  0.31229651  0.21876261    -0.77300
O634        O  0.61691100  0.42455549  0.19562682    -0.82500
C635        C  0.56371958  0.37606083  0.16969061     0.98500
C636        C  0.62523106  0.43470482  0.17126951     1.04400
O637        O  0.58059407  0.37674749  0.14772733    -0.78200
C638        C  0.61516563  0.32030381  0.23760348     1.02700
Fe639      Fe  0.66038431  0.18904369  0.34023832     1.65800
Fe640      Fe  0.61433098  0.21374441  0.39049247     1.73200
Fe641      Fe  0.62188267  0.14083836  0.37895198     1.54400
O642        O  0.62760877  0.12604975  0.33536290    -0.81900
O643        O  0.62616184  0.19591089  0.42975784    -0.80200
O644        O  0.63544761  0.16709761  0.31133013    -0.84400
O645        O  0.68580672  0.15305560  0.35067282    -0.79200
O646        O  0.57793679  0.14908863  0.37099542    -0.81000
O647        O  0.65267734  0.23824927  0.39201269    -0.83800
C648        C  0.68746605  0.13746888  0.37349150     0.97000
C649        C  0.63107239  0.14007777  0.31157419     1.04400
O650        O  0.63200710  0.18130412  0.37003587    -1.12700
O651        O  0.60108281  0.23437650  0.35247374    -0.75200
O652        O  0.64001162  0.22587465  0.32508809    -0.78700
O653        O  0.66526348  0.13169499  0.38895998    -0.79400
C654        C  0.61592804  0.23855883  0.32956851     0.95900
O655        O  0.68567404  0.21230756  0.36804570    -0.77300
O656        O  0.57429155  0.19300416  0.39130694    -0.82500
C657        C  0.62183973  0.17051311  0.43963909     0.98500
C658        C  0.56272343  0.16997226  0.38122069     1.04400
O659        O  0.61572611  0.14910669  0.42324678    -0.78200
C660        C  0.67892292  0.23335228  0.38445248     1.02700
Fe661      Fe  0.84196291  0.83419161  0.30767594     1.65800
Fe662      Fe  0.88725934  0.88786122  0.28406435     1.73200
Fe663      Fe  0.87891077  0.87467098  0.35791434     1.54400
O664        O  0.83425642  0.87588113  0.36984611    -0.81900
O665        O  0.92827415  0.88347797  0.30187966    -0.80200
O666        O  0.81143834  0.84935346  0.33622482    -0.84400
O667        O  0.85945260  0.80574319  0.33724286    -0.79200
O668        O  0.87591482  0.91934276  0.35171831    -0.81000
O669        O  0.89625973  0.85138980  0.25922669    -0.83800
C670        C  0.87528934  0.80707349  0.35969070     0.97000
C671        C  0.81106327  0.86554289  0.35840679     1.04400
O672        O  0.86946012  0.86564825  0.31661494    -1.12700
O673        O  0.84827208  0.89492316  0.26214607    -0.75200
O674        O  0.82073904  0.85796177  0.27652705    -0.78700
O675        O  0.88385179  0.83102221  0.37038059    -0.79400
C676        C  0.82470271  0.88061901  0.26134916     0.95900
O677        O  0.86918839  0.81585565  0.27787130    -0.77300
O678        O  0.88046812  0.92709663  0.30407545    -0.82500
C679        C  0.93953133  0.87812239  0.32660526     0.98500
C680        C  0.87657353  0.93618719  0.32977825     1.04400
O681        O  0.92414229  0.87495008  0.34960290    -0.78200
C682        C  0.88808779  0.82508132  0.26009277     1.02700
Fe683      Fe  0.84518389  0.68890867  0.16758190     1.65800
Fe684      Fe  0.89189066  0.71286495  0.11526624     1.73200
Fe685      Fe  0.88116923  0.63905520  0.12561940     1.54400
O686        O  0.88423586  0.62479959  0.16906878    -0.81900
O687        O  0.88363532  0.69493225  0.07525895    -0.80200
O688        O  0.86323626  0.65941040  0.19551870    -0.84400
O689        O  0.81477486  0.65995682  0.15235202    -0.79200
O690        O  0.92610201  0.64555722  0.12664102    -0.81000
O691        O  0.85377693  0.73714418  0.11016977    -0.83800
C692        C  0.81399489  0.63924263  0.13428850     0.97000
C693        C  0.87690200  0.63568791  0.19341670     1.04400
O694        O  0.87285219  0.68025554  0.13613258    -1.12700
O695        O  0.90238587  0.73553160  0.15248724    -0.75200
O696        O  0.87170748  0.71938593  0.18634170    -0.78700
O697        O  0.83679148  0.62860465  0.12264875    -0.79400
C698        C  0.89219584  0.73586089  0.17809413     0.95900
O699        O  0.82359048  0.71989667  0.14387871    -0.77300
O700        O  0.93223686  0.69306296  0.11832771    -0.82500
C701        C  0.87967018  0.66971965  0.06503585     0.98500
C702        C  0.94229115  0.66777075  0.12329762     1.04400
O703        O  0.87952902  0.64708530  0.08097642    -0.78200
C704        C  0.82930471  0.73709059  0.12310416     1.02700
Fe705      Fe  0.68583096  0.83362170  0.16340376     1.65800
Fe706      Fe  0.71220670  0.88292528  0.11502972     1.73200
Fe707      Fe  0.63780940  0.87393408  0.12270190     1.54400
O708        O  0.62484962  0.83045689  0.11865243    -0.81900
O709        O  0.69271172  0.92333662  0.11566019    -0.80200
O710        O  0.65544063  0.80564750  0.14703025    -0.84400
O711        O  0.65706226  0.85226922  0.19173351    -0.79200
O712        O  0.64725815  0.87292365  0.07826162    -0.81000
O713        O  0.73218066  0.89301104  0.15438993    -0.83800
C714        C  0.63477741  0.86843324  0.19024036     0.97000
C715        C  0.63418408  0.80677765  0.12956336     1.04400
O716        O  0.67856461  0.86356911  0.13364177    -1.12700
O717        O  0.73743468  0.84536589  0.11144050    -0.75200
O718        O  0.71610857  0.81186749  0.13895355    -0.78700
O719        O  0.62383606  0.87695015  0.16617930    -0.79400
C720        C  0.73585550  0.81960749  0.12135361     0.95900
O721        O  0.71767997  0.85720527  0.18352880    -0.77300
O722        O  0.69564361  0.87487821  0.07406128    -0.82500
C723        C  0.66764647  0.93420726  0.11990988     0.98500
C724        C  0.67034628  0.87267033  0.06286573     1.04400
O725        O  0.64528923  0.91858486  0.12447134    -0.78200
C726        C  0.73296840  0.87953793  0.17859217     1.02700
Fe727      Fe  0.66072909  0.80792651  0.33293211     1.65800
Fe728      Fe  0.61392664  0.78152219  0.38411637     1.73200
Fe729      Fe  0.62277288  0.85569575  0.37530900     1.54400
O730        O  0.66717418  0.86743453  0.37905758    -0.81900
O731        O  0.57319146  0.79958076  0.37926212    -0.80200
O732        O  0.69002400  0.83723957  0.34880177    -0.84400
O733        O  0.64207546  0.83728125  0.30523589    -0.79200
O734        O  0.62338213  0.84708400  0.42002894    -0.81000
O735        O  0.60605985  0.75842224  0.34618917    -0.83800
C736        C  0.62707370  0.86016153  0.30756635     0.97000
C737        C  0.69030945  0.85769247  0.36707200     1.04400
O738        O  0.63245841  0.81506955  0.36426222    -1.12700
O739        O  0.65293865  0.75965530  0.39082436    -0.75200
O740        O  0.68245625  0.77721080  0.35658157    -0.78700
O741        O  0.61956396  0.87057715  0.33205540    -0.79400
C742        C  0.67733738  0.76040401  0.37783334     0.95900
O743        O  0.63568831  0.77736066  0.31309898    -0.77300
O744        O  0.61880934  0.79924730  0.42499958    -0.82500
C745        C  0.56230078  0.82460400  0.37472074     0.98500
C746        C  0.62165192  0.82439655  0.43583565     1.04400
O747        O  0.57800876  0.84739745  0.37295026    -0.78200
C748        C  0.61608945  0.75961365  0.32050466     1.02700
Fe749      Fe  0.81946895  0.66404174  0.33861116     1.65800
Fe750      Fe  0.79140295  0.61484935  0.38492136     1.73200
Fe751      Fe  0.86568119  0.62215689  0.37865380     1.54400
O752        O  0.87981296  0.62092587  0.33475317    -0.81900
O753        O  0.80670249  0.62372500  0.42617113    -0.80200
O754        O  0.84363127  0.64153680  0.30929120    -0.84400
O755        O  0.85414942  0.68904808  0.35057363    -0.79200
O756        O  0.85723678  0.57757794  0.37488133    -0.81000
O757        O  0.76729558  0.65324660  0.38638984    -0.83800
C758        C  0.87235912  0.68870852  0.37110994     0.97000
C759        C  0.86685650  0.62666046  0.31072012     1.04400
O760        O  0.82568595  0.63343581  0.36750851    -1.12700
O761        O  0.77311196  0.60450025  0.34478050    -0.75200
O762        O  0.78320946  0.64522951  0.32102286    -0.78700
O763        O  0.87849153  0.66562484  0.38515408    -0.79400
C764        C  0.76990061  0.62130593  0.32300529     0.95900
O765        O  0.79441570  0.68786933  0.36647724    -0.77300
O766        O  0.81018627  0.57394122  0.38578190    -0.82500
C767        C  0.83189440  0.62410799  0.43777600     0.98500
C768        C  0.83472109  0.56233561  0.38031974     1.04400
O769        O  0.85531040  0.62150709  0.42300917    -0.78200
C770        C  0.77189695  0.67983220  0.38019970     1.02700
Fe771      Fe  0.66293116  0.66327791  0.18759369     1.65800
Fe772      Fe  0.61820219  0.61015086  0.21237167     1.73200
Fe773      Fe  0.62664873  0.62134865  0.13853237     1.54400
O774        O  0.62349468  0.66505445  0.12454265    -0.81900
O775        O  0.62886879  0.57078568  0.19475374    -0.80200
O776        O  0.64100744  0.69117156  0.16128613    -0.84400
O777        O  0.69172215  0.65172554  0.15561226    -0.79200
O778        O  0.58183380  0.62291088  0.14600930    -0.81000
O779        O  0.65654166  0.60802108  0.23673633    -0.83800
C780        C  0.69316347  0.63221884  0.13636826     0.97000
C781        C  0.62779102  0.68924431  0.13728960     1.04400
O782        O  0.63582396  0.63150107  0.17946867    -1.12700
O783        O  0.60506446  0.64710789  0.23413001    -0.75200
O784        O  0.63843665  0.67942085  0.22081171    -0.78700
O785        O  0.67099865  0.61795803  0.12782092    -0.79400
C786        C  0.61667073  0.67196488  0.23592565     0.95900
O787        O  0.68725259  0.63871878  0.21553949    -0.77300
O788        O  0.57784437  0.60966851  0.19262136    -0.82500
C789        C  0.62943081  0.56049084  0.16920104     0.98500
C790        C  0.56657617  0.61597994  0.16812125     1.04400
O791        O  0.62746346  0.57654270  0.14662960    -0.78200
C792        C  0.68152953  0.61973012  0.23471234     1.02700
Fe793      Fe  0.18406344  0.34084883  0.32917903     1.65800
Fe794      Fe  0.21017480  0.38583832  0.37999234     1.73200
Fe795      Fe  0.13698392  0.37797672  0.37035057     1.54400
O796        O  0.12300905  0.37717551  0.32599380    -0.81900
O797        O  0.19386512  0.37388572  0.41997787    -0.80200
O798        O  0.16311601  0.36707724  0.30035790    -0.84400
O799        O  0.14643121  0.31701921  0.33629346    -0.79200
O800        O  0.14436210  0.42252699  0.36594880    -0.81000
O801        O  0.23394065  0.34682686  0.37934312    -0.83800
C802        C  0.13271320  0.31303330  0.35983262     0.97000
C803        C  0.13708861  0.37610668  0.30189096     1.04400
O804        O  0.17708521  0.36879637  0.35984664    -1.12700
O805        O  0.23018921  0.39937718  0.34172998    -0.75200
O806        O  0.22304694  0.35897996  0.31663510    -0.78700
O807        O  0.12819376  0.33382170  0.37736684    -0.79400
C808        C  0.23717523  0.38208240  0.32149127     0.95900
O809        O  0.20576724  0.31422288  0.35740377    -0.77300
O810        O  0.19000736  0.42627730  0.38270396    -0.82500
C811        C  0.16852370  0.37601056  0.43085507     0.98500
C812        C  0.16585420  0.43768166  0.37488476     1.04400
O813        O  0.14600342  0.38024372  0.41507940    -0.78200
C814        C  0.22844386  0.32069194  0.37177747     1.02700
Fe815      Fe  0.33746350  0.33787551  0.18542613     1.65800
Fe816      Fe  0.38835008  0.38395636  0.21043393     1.73200
Fe817      Fe  0.37717522  0.37620840  0.13695549     1.54400
O818        O  0.38258474  0.33219179  0.12622279    -0.81900
O819        O  0.38705001  0.42479895  0.19157701    -0.80200
O820        O  0.34413617  0.31349929  0.14842389    -0.84400
O821        O  0.30785588  0.36339865  0.16443462    -0.79200
O822        O  0.42215577  0.37729282  0.14417868    -0.81000
O823        O  0.35059924  0.39518338  0.23289206    -0.83800
C824        C  0.30898186  0.37512411  0.13944353     0.97000
C825        C  0.36569075  0.31097038  0.13154446     1.04400
O826        O  0.36779299  0.36638348  0.17758182    -1.12700
O827        O  0.39154102  0.34453594  0.23287378    -0.75200
O828        O  0.36647090  0.31187271  0.20736011    -0.78700
O829        O  0.33260741  0.37713046  0.12477771    -0.79400
C830        C  0.38377164  0.31838758  0.22795987     0.95900
O831        O  0.32435720  0.35591249  0.22402318    -0.77300
O832        O  0.42828945  0.37483221  0.19233202    -0.82500
C833        C  0.37973938  0.43595438  0.16723384     0.98500
C834        C  0.43828900  0.37476884  0.16661140     1.04400
O835        O  0.37390667  0.42067690  0.14488193    -0.78200
C836        C  0.32948244  0.37847713  0.23872488     1.02700
Fe837      Fe  0.33831756  0.18913674  0.33149223     1.65800
Fe838      Fe  0.38452128  0.21471542  0.38158889     1.73200
Fe839      Fe  0.37588975  0.14163990  0.37254601     1.54400
O840        O  0.33188197  0.13199341  0.37919207    -0.81900
O841        O  0.42451179  0.19398988  0.38503665    -0.80200
O842        O  0.31282381  0.15331555  0.34026289    -0.84400
O843        O  0.36289797  0.16688715  0.30247698    -0.79200
O844        O  0.37773538  0.15109271  0.41721127    -0.81000
O845        O  0.39894750  0.23254141  0.34255674    -0.83800
C846        C  0.37337601  0.14152324  0.30416189     0.97000
C847        C  0.31038114  0.13742375  0.36263024     1.04400
O848        O  0.36658336  0.18172828  0.36199399    -1.12700
O849        O  0.34636613  0.23995655  0.38043498    -0.75200
O850        O  0.31298018  0.21219768  0.35934231    -0.78700
O851        O  0.37554062  0.12767024  0.32834523    -0.79400
C852        C  0.31999710  0.23478801  0.37336105     0.95900
O853        O  0.35846180  0.22613166  0.31699744    -0.77300
O854        O  0.37194926  0.19904454  0.42181631    -0.82500
C855        C  0.43577365  0.17003193  0.37695365     0.98500
C856        C  0.37352295  0.17365233  0.43279496     1.04400
O857        O  0.42038001  0.14880619  0.36816773    -0.78200
C858        C  0.38359844  0.23698829  0.31998672     1.02700
Fe859      Fe  0.16041071  0.16336149  0.30478509     1.65800
Fe860      Fe  0.11176234  0.11483821  0.28074726     1.73200
Fe861      Fe  0.12193095  0.12545446  0.35383653     1.54400
O862        O  0.16679759  0.12765364  0.36648293    -0.81900
O863        O  0.07140304  0.12439465  0.29766362    -0.80200
O864        O  0.19095775  0.13955827  0.32592115    -0.84400
O865        O  0.15286174  0.18820499  0.34146387    -0.79200
O866        O  0.12778404  0.08112095  0.34759510    -0.81000
O867        O  0.10958768  0.15311601  0.25585818    -0.83800
C868        C  0.12997737  0.19104695  0.35646638     0.97000
C869        C  0.19044476  0.12972476  0.35166541     1.04400
O870        O  0.13130803  0.13404099  0.31316952    -1.12700
O871        O  0.15017532  0.10307433  0.26002809    -0.75200
O872        O  0.17346058  0.14458709  0.26654890    -0.78700
O873        O  0.11373780  0.16946776  0.36219992    -0.79400
C874        C  0.16975002  0.12105492  0.25286942     0.95900
O875        O  0.13050578  0.18753480  0.28263611    -0.77300
O876        O  0.11279940  0.07494111  0.30163202    -0.82500
C877        C  0.06083902  0.12386805  0.32319168     0.98500
C878        C  0.12137871  0.06493698  0.32607257     1.04400
O879        O  0.07688693  0.12157548  0.34583372    -0.78200
C880        C  0.11654831  0.17961177  0.26013790     1.02700
Fe881      Fe  0.31289023  0.16179962  0.15788701     1.65800
Fe882      Fe  0.28715902  0.11515264  0.10843879     1.73200
Fe883      Fe  0.36041226  0.12397393  0.11817554     1.54400
O884        O  0.36850631  0.16810956  0.11000433    -0.81900
O885        O  0.30723408  0.07450358  0.10879921    -0.80200
O886        O  0.35089116  0.18493580  0.15110690    -0.84400
O887        O  0.33300384  0.13603534  0.18783724    -0.79200
O888        O  0.35228592  0.12084268  0.07337345    -0.81000
O889        O  0.26562279  0.10394722  0.14667027    -0.83800
C890        C  0.35912363  0.12710598  0.18674126     0.97000
C891        C  0.36357560  0.18912264  0.12709193     1.04400
O892        O  0.32008918  0.13283572  0.12825807    -1.12700
O893        O  0.26442798  0.15481208  0.10584162    -0.75200
O894        O  0.29248138  0.18757154  0.12795078    -0.78700
O895        O  0.37351225  0.12581734  0.16279623    -0.79400
C896        C  0.27079952  0.18113940  0.11199906     0.95900
O897        O  0.27346445  0.14491073  0.17036756    -0.77300
O898        O  0.30422068  0.12460349  0.06835134    -0.82500
C899        C  0.33188522  0.06367829  0.11604360     0.98500
C900        C  0.32962472  0.12382462  0.05757875     1.04400
O901        O  0.35359273  0.07942215  0.12332116    -0.78200
C902        C  0.25871042  0.12213606  0.16611817     1.02700
Fe903      Fe  0.16689768  0.31677506  0.15774942     1.65800
Fe904      Fe  0.12046585  0.28855381  0.10853490     1.73200
Fe905      Fe  0.12588833  0.36241325  0.11646873     1.54400
O906        O  0.12467148  0.37647811  0.16035540    -0.81900
O907        O  0.12898074  0.30495698  0.06766874    -0.80200
O908        O  0.14234568  0.33952923  0.18669346    -0.84400
O909        O  0.19092708  0.35274545  0.14715946    -0.79200
O910        O  0.08187917  0.35295359  0.12062421    -0.81000
O911        O  0.16020068  0.26651111  0.10640044    -0.83800
C912        C  0.19127008  0.37044102  0.12610425     0.97000
C913        C  0.12887407  0.36346542  0.18466055     1.04400
O914        O  0.13758149  0.32263658  0.12741126    -1.12700
O915        O  0.10993857  0.26862650  0.14770833    -0.75200
O916        O  0.14854209  0.27984296  0.17438953    -0.78700
O917        O  0.16904291  0.37537416  0.11038002    -0.79400
C918        C  0.12519774  0.26589114  0.17058652     0.95900
O919        O  0.19278006  0.29301377  0.13038240    -0.77300
O920        O  0.07890940  0.30623009  0.10840544    -0.82500
C921        C  0.12832348  0.33019731  0.05642297     0.98500
C922        C  0.06704919  0.33032921  0.11503392     1.04400
O923        O  0.12509533  0.35307981  0.07172571    -0.78200
C924        C  0.18638476  0.27184406  0.11397565     1.02700
Fe925      Fe  0.33526875  0.81499864  0.33435696     1.65800
Fe926      Fe  0.38077051  0.78672660  0.38505723     1.73200
Fe927      Fe  0.37784074  0.86048478  0.37399572     1.54400
O928        O  0.37831122  0.87449392  0.33008640    -0.81900
O929        O  0.37243312  0.80485325  0.42472895    -0.80200
O930        O  0.35855161  0.83832083  0.30480080    -0.84400
O931        O  0.31073228  0.85030152  0.34692926    -0.79200
O932        O  0.42120492  0.84909018  0.36856159    -0.81000
O933        O  0.34071387  0.76562536  0.38823896    -0.83800
C934        C  0.31196621  0.86879631  0.36726924     0.97000
C935        C  0.37258744  0.86185011  0.30607880     1.04400
O936        O  0.36472225  0.82073403  0.36450835    -1.12700
O937        O  0.39081213  0.76460207  0.34747837    -0.75200
O938        O  0.35524848  0.77873845  0.31777735    -0.78700
O939        O  0.33534314  0.87469200  0.38079430    -0.79400
C940        C  0.37695984  0.76271400  0.32374221     0.95900
O941        O  0.30944657  0.79044475  0.36085042    -0.77300
O942        O  0.42276700  0.80314994  0.38399378    -0.82500
C943        C  0.37473384  0.83021268  0.43511269     0.98500
C944        C  0.43528216  0.82606017  0.37482601     1.04400
O945        O  0.37947260  0.85230196  0.41898395    -0.78200
C946        C  0.31503088  0.77026519  0.37875813     1.02700
Fe947      Fe  0.17350392  0.84843151  0.30716311     1.65800
Fe948      Fe  0.11773375  0.88807395  0.28125449     1.73200
Fe949      Fe  0.12794509  0.87866775  0.35456896     1.54400
O950        O  0.12368825  0.83315532  0.36067065    -0.81900
O951        O  0.11705820  0.92859457  0.30096626    -0.80200
O952        O  0.16802534  0.82565842  0.34536007    -0.84400
O953        O  0.19812697  0.87822934  0.32859369    -0.79200
O954        O  0.08311645  0.87989459  0.34663191    -0.81000
O955        O  0.15439044  0.90210360  0.25866191    -0.83800
C956        C  0.19591345  0.88345479  0.35551276     0.97000
C957        C  0.14424124  0.81557385  0.35466792     1.04400
O958        O  0.13935412  0.87218077  0.31396285    -1.12700
O959        O  0.11820710  0.84795913  0.25976576    -0.75200
O960        O  0.14892390  0.81884166  0.28432118    -0.78700
O961        O  0.17198437  0.87958983  0.36930795    -0.79400
C962        C  0.13002463  0.82311363  0.26431771     0.95900
O963        O  0.18617363  0.86752118  0.26913432    -0.77300
O964        O  0.07770811  0.87705355  0.29875323    -0.82500
C965        C  0.12470119  0.93919761  0.32550226     0.98500
C966        C  0.06702133  0.87762238  0.32423525     1.04400
O967        O  0.13051584  0.92355179  0.34790954    -0.78200
C968        C  0.17875692  0.88977270  0.25489301     1.02700
Fe969      Fe  0.31206695  0.84276538  0.16216147     1.65800
Fe970      Fe  0.28892106  0.88573056  0.10749763     1.73200
Fe971      Fe  0.36191807  0.87673112  0.12043601     1.54400
O972        O  0.37557603  0.87698075  0.16454947    -0.81900
O973        O  0.30677565  0.87122357  0.06983159    -0.80200
O974        O  0.33564852  0.86725035  0.19033669    -0.84400
O975        O  0.34667600  0.81489654  0.15434150    -0.79200
O976        O  0.35504984  0.92163149  0.12294731    -0.81000
O977        O  0.26363428  0.84802200  0.10779794    -0.83800
C978        C  0.36316860  0.81131908  0.13251535     0.97000
C979        C  0.36174759  0.87576637  0.18865415     1.04400
O980        O  0.32096207  0.86881160  0.13013284    -1.12700
O981        O  0.26732422  0.90178101  0.14323348    -0.75200
O982        O  0.27609613  0.86616845  0.17488371    -0.78700
O983        O  0.37038751  0.83225097  0.11587300    -0.79400
C984        C  0.26275689  0.88912466  0.16726038     0.95900
O985        O  0.28760811  0.81682029  0.13602320    -0.77300
O986        O  0.31016466  0.92528898  0.10445240    -0.82500
C987        C  0.33234136  0.87222310  0.05965554     0.98500
C988        C  0.33387728  0.93679818  0.11301186     1.04400
O989        O  0.35445965  0.87746380  0.07551996    -0.78200
C990        C  0.26749203  0.82256005  0.11797736     1.02700
Fe991      Fe  0.17012735  0.68094217  0.16325057     1.65800
Fe992      Fe  0.12019509  0.71038873  0.11730236     1.73200
Fe993      Fe  0.12824564  0.63580055  0.12161109     1.54400
O994        O  0.17173843  0.62186236  0.11715968    -0.81900
O995        O  0.07938936  0.69331535  0.12507892    -0.80200
O996        O  0.19804334  0.65504063  0.14067902    -0.84400
O997        O  0.15611151  0.64770289  0.18919538    -0.79200
O998        O  0.12958969  0.64636617  0.07772086    -0.81000
O999        O  0.11749180  0.73211954  0.15702970    -0.83800
C1000       C  0.13748409  0.62759589  0.18786099     0.97000
C1001       C  0.19605097  0.63319707  0.12418691     1.04400
O1002       O  0.13935865  0.67566868  0.13401821    -1.12700
O1003       O  0.15902346  0.73137702  0.10744341    -0.75200
O1004       O  0.18861079  0.71521863  0.14206846    -0.78700
O1005       O  0.12465342  0.62057412  0.16440958    -0.79400
C1006       C  0.18335078  0.73162834  0.12060050     0.95900
O1007       O  0.14564172  0.70829423  0.18842613    -0.77300
O1008       O  0.12077805  0.69393101  0.07544080    -0.82500
C1009       C  0.06842934  0.66796982  0.12571395     0.98500
C1010       C  0.12556606  0.66963885  0.06329257     1.04400
O1011       O  0.08377306  0.64499545  0.12348966    -0.78200
C1012       C  0.12798007  0.72862760  0.18248785     1.02700
Fe1013     Fe  0.33479611  0.65606917  0.19090193     1.65800
Fe1014     Fe  0.38975088  0.61288218  0.21529399     1.73200
Fe1015     Fe  0.37950764  0.62307249  0.14142525     1.54400
O1016       O  0.33680097  0.61934496  0.12592841    -0.81900
O1017       O  0.42994175  0.61665298  0.19613465    -0.80200
O1018       O  0.30833909  0.63794189  0.16023214    -0.84400
O1019       O  0.34962028  0.68773821  0.16255364    -0.79200
O1020       O  0.37885073  0.57809789  0.14890934    -0.81000
O1021       O  0.39666678  0.65242660  0.23575828    -0.83800
C1022       C  0.36804466  0.68967555  0.14201354     0.97000
C1023       C  0.31184118  0.62528335  0.13617329     1.04400
O1024       O  0.36814235  0.63067824  0.18246323    -1.12700
O1025       O  0.35368254  0.60557620  0.24133629    -0.75200
O1026       O  0.31613123  0.62782061  0.22046046    -0.78700
O1027       O  0.38128253  0.66765951  0.13154172    -0.79400
C1028       C  0.32681685  0.61174799  0.24022414     0.95900
O1029       O  0.35681174  0.67731514  0.22317169    -0.77300
O1030       O  0.38402889  0.57236966  0.19716468    -0.82500
C1031       C  0.44025023  0.62095490  0.17098255     0.98500
C1032       C  0.38000854  0.56210917  0.17173939     1.04400
O1033       O  0.42412959  0.62497936  0.14893147    -0.78200
C1034       C  0.38029808  0.67469539  0.23747801     1.02700
Fe1035     Fe  0.19299816  0.65414986  0.33177999     1.65800
Fe1036     Fe  0.21376170  0.61371900  0.38852712     1.73200
Fe1037     Fe  0.14168473  0.62544808  0.37349172     1.54400
O1038       O  0.13654523  0.67146042  0.37616745    -0.81900
O1039       O  0.19217854  0.57405856  0.38997572    -0.80200
O1040       O  0.15419437  0.67640693  0.33276768    -0.84400
O1041       O  0.17397092  0.62437189  0.30553530    -0.79200
O1042       O  0.14690022  0.62512523  0.41873748    -0.81000
O1043       O  0.23688083  0.59788251  0.35293352    -0.83800
C1044       C  0.14679773  0.61939342  0.30565758     0.97000
C1045       C  0.14411252  0.68803975  0.35527771     1.04400
O1046       O  0.18302867  0.63036652  0.36493891    -1.12700
O1047       O  0.23700588  0.65300923  0.38845090    -0.75200
O1048       O  0.21243436  0.68333403  0.35912584    -0.78700
O1049       O  0.13099785  0.62352731  0.32833322    -0.79400
C1050       C  0.23203562  0.67846751  0.37821309     0.95900
O1051       O  0.23272243  0.63566907  0.32337967    -0.77300
O1052       O  0.19470326  0.62684182  0.42685909    -0.82500
C1053       C  0.16759810  0.56397435  0.38167747     0.98500
C1054       C  0.16859645  0.62715847  0.43589082     1.04400
O1055       O  0.14669831  0.58021838  0.37272615    -0.78200
C1056       C  0.24433339  0.61178288  0.33030273     1.02700
C1057       C  0.26708063  0.60091924  0.31048025    -0.00400
C1058       C  0.25847331  0.59323879  0.28219967    -0.12200
C1059       C  0.27844910  0.59358906  0.25915282     0.01900
C1060       C  0.30751382  0.60210493  0.26424297    -0.00500
C1061       C  0.31683048  0.60638187  0.29309737    -0.12200
C1062       C  0.29680645  0.60600057  0.31618020     0.01800
H1063       H  0.23562716  0.58914428  0.27770530     0.14700
H1064       H  0.33920908  0.61265676  0.29733034     0.14700
C1065       C  0.30670958  0.61377516  0.34493892     0.36400
C1066       C  0.26844428  0.58614211  0.23032688     0.36300
N1067       N  0.31478264  0.61995928  0.36796116    -0.44000
N1068       N  0.26052159  0.57993771  0.20725229    -0.44000
C1069       C  0.28499464  0.61862614  0.11981352    -0.00400
C1070       C  0.26720429  0.59586394  0.12982388    -0.12200
C1071       C  0.23686078  0.59692650  0.12570102     0.01900
C1072       C  0.22411829  0.62183763  0.11321269    -0.00500
C1073       C  0.24227926  0.64183410  0.09888831    -0.12200
C1074       C  0.27262978  0.64008244  0.10168606     0.01800
H1075       H  0.27664537  0.57861303  0.14293999     0.14700
H1076       H  0.23269527  0.66074213  0.08840745     0.14700
C1077       C  0.29032840  0.66247054  0.08861756     0.36400
C1078       C  0.21911573  0.57306171  0.13549228     0.36300
N1079       N  0.30434308  0.68031260  0.07772642    -0.44000
N1080       N  0.20498435  0.55337526  0.14222893    -0.44000
C1081       C  0.12967841  0.61423856  0.21601070    -0.00400
C1082       C  0.11023767  0.63003619  0.23353933    -0.12200
C1083       C  0.11245401  0.62915782  0.26402386     0.01900
C1084       C  0.13394548  0.61153655  0.27722851    -0.00500
C1085       C  0.14996348  0.59231015  0.25976550    -0.12200
C1086       C  0.14844781  0.59394395  0.22938842     0.01800
H1087       H  0.09608691  0.64610019  0.22345712     0.14700
H1088       H  0.16645556  0.57858978  0.26977851     0.14700
C1089       C  0.16917266  0.57729054  0.21285430     0.36400
C1090       C  0.09595878  0.65000594  0.28070186     0.36300
N1091       N  0.18623189  0.56356210  0.20051340    -0.44000
N1092       N  0.08296137  0.66697658  0.29395763    -0.44000
C1093       C  0.24742525  0.79834824  0.11039779    -0.00400
C1094       C  0.25584840  0.77021170  0.11886857    -0.12200
C1095       C  0.23592218  0.74752572  0.11992439     0.01900
C1096       C  0.20646891  0.75254250  0.11217029    -0.00500
C1097       C  0.19885997  0.77954807  0.09987509    -0.12200
C1098       C  0.21912208  0.80242652  0.09874664     0.01800
H1099       H  0.27784873  0.76612309  0.12654422     0.14700
H1100       H  0.17659611  0.78345387  0.09293836     0.14700
C1101       C  0.20978008  0.82992955  0.08675355     0.36400
C1102       C  0.24630839  0.71992327  0.13096156     0.36300
N1103       N  0.20233224  0.85186313  0.07681705    -0.44000
N1104       N  0.25485800  0.69815955  0.14035791    -0.44000
C1105       C  0.37180512  0.78091543  0.12594933    -0.00400
C1106       C  0.39396696  0.76750022  0.14229210    -0.12200
C1107       C  0.39565769  0.73697496  0.14444764     0.01900
C1108       C  0.37421416  0.71947994  0.13105547    -0.00500
C1109       C  0.35382668  0.73285764  0.11259719    -0.12200
C1110       C  0.35289246  0.76321810  0.10946119     0.01800
H1111       H  0.40852671  0.78081935  0.15517847     0.14700
H1112       H  0.33730707  0.71976223  0.10219077     0.14700
C1113       C  0.33089110  0.77585835  0.09079523     0.36400
C1114       C  0.41753069  0.72425623  0.16320038     0.36300
N1115       N  0.31346808  0.78589414  0.07553444    -0.44000
N1116       N  0.43501980  0.71413450  0.17832767    -0.44000
C1117       C  0.12288443  0.79814259  0.24488896    -0.00400
C1118       C  0.13049885  0.76997288  0.25414083    -0.12200
C1119       C  0.12987360  0.74635987  0.23502817     0.01900
C1120       C  0.12160749  0.75056405  0.20555169    -0.00500
C1121       C  0.11105520  0.77806768  0.19715628    -0.12200
C1122       C  0.11162581  0.80172528  0.21635096     0.01800
H1123       H  0.13814373  0.76646278  0.27622131     0.14700
H1124       H  0.10409769  0.78172122  0.17487415     0.14700
C1125       C  0.10235349  0.82964058  0.20523563     0.36400
C1126       C  0.13885096  0.71838853  0.24631353     0.36300
N1127       N  0.09485703  0.85194426  0.19620458    -0.44000
N1128       N  0.14620319  0.69607854  0.25544029    -0.44000
C1129       C  0.14192200  0.78305202  0.35648666    -0.00400
C1130       C  0.16081786  0.76748759  0.33828972    -0.12200
C1131       C  0.16136782  0.73731050  0.33760417     0.01900
C1132       C  0.14279064  0.72074619  0.35602650    -0.00500
C1133       C  0.12361255  0.73610194  0.37451563    -0.12200
C1134       C  0.12272685  0.76701072  0.37451332     0.01800
H1135       H  0.17549586  0.77905725  0.32382944     0.14700
H1136       H  0.10907598  0.72403960  0.38865221     0.14700
C1137       C  0.10233869  0.78162189  0.39330758     0.36400
C1138       C  0.18217074  0.72451866  0.31772719     0.36300
N1139       N  0.08589024  0.79338330  0.40829548    -0.44000
N1140       N  0.19894073  0.71469184  0.30171850    -0.44000
C1141       C  0.19971628  0.90039518  0.23290557    -0.00400
C1142       C  0.19077514  0.90363169  0.20378633    -0.12200
C1143       C  0.21146144  0.90341689  0.18118531     0.01900
C1144       C  0.24133316  0.90063405  0.18802525    -0.00500
C1145       C  0.25018752  0.90177590  0.21707130    -0.12200
C1146       C  0.22983691  0.90106799  0.23944594     0.01800
H1147       H  0.16774051  0.90316641  0.19851756     0.14700
H1148       H  0.27321175  0.90001703  0.22232190     0.14700
C1149       C  0.24096231  0.89742856  0.26858971     0.36400
C1150       C  0.20145031  0.90270793  0.15140520     0.36300
N1151       N  0.25099796  0.89374283  0.29139355    -0.44000
N1152       N  0.19344861  0.90215134  0.12751669    -0.44000
C1153       C  0.38137790  0.87427461  0.27762518    -0.00400
C1154       C  0.36553367  0.89791683  0.26649206    -0.12200
C1155       C  0.36271303  0.90192894  0.23627023     0.01900
C1156       C  0.37595691  0.88216488  0.21683916    -0.00500
C1157       C  0.39539974  0.86140754  0.22801919    -0.12200
C1158       C  0.39806513  0.85723616  0.25820204     0.01800
H1159       H  0.35262998  0.91113016  0.28114755     0.14700
H1160       H  0.40561250  0.84604891  0.21333972     0.14700
C1161       C  0.41544600  0.83318095  0.26873357     0.36400
C1162       C  0.34358086  0.92450705  0.22553640     0.36300
N1163       N  0.42931829  0.81391837  0.27725606    -0.44000
N1164       N  0.32834377  0.94258234  0.21673745    -0.44000
C1165       C  0.38557075  0.74115315  0.30162025    -0.00400
C1166       C  0.38058597  0.74861467  0.27247722    -0.12200
C1167       C  0.38054671  0.72759289  0.25083483     0.01900
C1168       C  0.38736140  0.69841609  0.25784472    -0.00500
C1169       C  0.39567376  0.69146854  0.28649250    -0.12200
C1170       C  0.39424753  0.71246339  0.30857790     0.01800
H1171       H  0.37431505  0.77070290  0.26687262     0.14700
H1172       H  0.40047929  0.66906995  0.29218713     0.14700
C1173       C  0.39852498  0.70319179  0.33833174     0.36400
C1174       C  0.37029125  0.73641708  0.22244463     0.36300
N1175       N  0.40171825  0.69562151  0.36217575    -0.44000
N1176       N  0.36097053  0.74411684  0.20032872    -0.44000
C1177       C  0.22346776  0.89042623  0.37069649    -0.00400
C1178       C  0.23433935  0.86976850  0.39042476    -0.12200
C1179       C  0.26449095  0.86540625  0.39320666     0.01900
C1180       C  0.28396735  0.88188345  0.37603889    -0.00500
C1181       C  0.27322675  0.90572469  0.36028990    -0.12200
C1182       C  0.24307654  0.91048634  0.35807839     0.01800
H1183       H  0.21950042  0.85447026  0.40057256     0.14700
H1184       H  0.28807273  0.91878545  0.34739347     0.14700
C1185       C  0.23258932  0.93409549  0.34007602     0.36400
C1186       C  0.27482237  0.84146184  0.41086316     0.36300
N1187       N  0.22421635  0.95294686  0.32555401    -0.44000
N1188       N  0.28312124  0.82227366  0.42497614    -0.44000
C1189       C  0.29107839  0.74991385  0.38671180    -0.00400
C1190       C  0.29817589  0.72320156  0.39994297    -0.12200
C1191       C  0.27825273  0.70013084  0.40037417     0.01900
C1192       C  0.25072691  0.70345569  0.38683481    -0.00500
C1193       C  0.24224460  0.73140402  0.37772428    -0.12200
C1194       C  0.26187954  0.75452681  0.37761291     0.01800
H1195       H  0.31997561  0.71958009  0.40835226     0.14700
H1196       H  0.22054619  0.73497805  0.36903951     0.14700
C1197       C  0.25143008  0.78209607  0.36655072     0.36400
C1198       C  0.28728243  0.67321547  0.41385950     0.36300
N1199       N  0.24270041  0.80394559  0.35750284    -0.44000
N1200       N  0.29451511  0.65181729  0.42505052    -0.44000
C1201       C  0.33495138  0.03129887  0.11476610    -0.00400
C1202       C  0.31754583  0.01628488  0.09467228    -0.12200
C1203       C  0.31792505  0.98594967  0.09285664     0.01900
C1204       C  0.33589271  0.96931287  0.11179338    -0.00500
C1205       C  0.35434323  0.98431310  0.13111936    -0.12200
C1206       C  0.35404419  0.01494509  0.13274066     0.01800
H1207       H  0.30338018  0.02838476  0.08007664     0.14700
H1208       H  0.36829188  0.97208483  0.14579039     0.14700
C1209       C  0.37246377  0.02880705  0.15403109     0.36400
C1210       C  0.29961545  0.97274998  0.07096590     0.36300
N1211       N  0.38723518  0.03988119  0.17113487    -0.44000
N1212       N  0.28485563  0.96227978  0.05346817    -0.44000
C1213       C  0.20999605  0.25131991  0.10527708    -0.00400
C1214       C  0.20239578  0.22411506  0.09355224    -0.12200
C1215       C  0.22270357  0.20131732  0.09219959     0.01900
C1216       C  0.25125418  0.20551869  0.10304354    -0.00500
C1217       C  0.25982870  0.23389239  0.11038215    -0.12200
C1218       C  0.23971012  0.25660619  0.11171731     0.01800
H1219       H  0.18004448  0.21990751  0.08717860     0.14700
H1220       H  0.28202041  0.23808689  0.11731551     0.14700
C1221       C  0.25029215  0.28442163  0.12161900     0.36400
C1222       C  0.21301408  0.17367445  0.08106700     0.36300
N1223       N  0.25911914  0.30645620  0.12983819    -0.44000
N1224       N  0.20520994  0.15161495  0.07191937    -0.44000
C1225       C  0.12469414  0.03294130  0.32845832    -0.00400
C1226       C  0.13658278  0.01825719  0.30457261    -0.12200
C1227       C  0.13805832  0.98796114  0.30390818     0.01900
C1228       C  0.12691993  0.97137344  0.32739270    -0.00500
C1229       C  0.11636893  0.98604534  0.35205234    -0.12200
C1230       C  0.11516550  0.01662249  0.35274562     0.01800
H1231       H  0.14467707  0.03061257  0.28612177     0.14700
H1232       H  0.10791778  0.97362876  0.37027701     0.14700
C1233       C  0.10236376  0.03060029  0.37772242     0.36400
C1234       C  0.15181531  0.97474565  0.27896297     0.36300
N1235       N  0.09202671  0.04185667  0.39769858    -0.44000
N1236       N  0.16313242  0.96484696  0.25879606    -0.44000
C1237       C  0.23197382  0.11873019  0.18383327    -0.00400
C1238       C  0.22531402  0.09242082  0.19811473    -0.12200
C1239       C  0.20324533  0.09143149  0.21953906     0.01900
C1240       C  0.18792035  0.11708708  0.22662968    -0.00500
C1241       C  0.19254397  0.14215199  0.20997098    -0.12200
C1242       C  0.21426463  0.14332446  0.18905772     0.01800
H1243       H  0.23837810  0.07325781  0.19386030     0.14700
H1244       H  0.18000439  0.16167432  0.21444840     0.14700
C1245       C  0.21861680  0.17085572  0.17449012     0.36400
C1246       C  0.19779677  0.06454774  0.23479344     0.36300
N1247       N  0.22179178  0.19331686  0.16358947    -0.44000
N1248       N  0.19326574  0.04287334  0.24679708    -0.44000
C1249       C  0.11651397  0.24541405  0.19385392    -0.00400
C1250       C  0.10753885  0.21726538  0.18647691    -0.12200
C1251       C  0.10545621  0.19540873  0.20780367     0.01900
C1252       C  0.11097308  0.20211802  0.23742805    -0.00500
C1253       C  0.11685441  0.23112376  0.24482238    -0.12200
C1254       C  0.12074790  0.25234012  0.22351374     0.01800
H1255       H  0.10460179  0.21170173  0.16373713     0.14700
H1256       H  0.12090432  0.23695193  0.26732985     0.14700
C1257       C  0.13142565  0.28029636  0.23294187     0.36400
C1258       C  0.10039680  0.16605779  0.19807915     0.36300
N1259       N  0.14070878  0.30215847  0.24112255    -0.44000
N1260       N  0.09663278  0.14252796  0.19012440    -0.44000
C1261       C  0.28075463  0.12647307  0.36919230    -0.00400
C1262       C  0.26843370  0.10623164  0.35011784    -0.12200
C1263       C  0.23809918  0.10372230  0.34740758     0.01900
C1264       C  0.21941681  0.12187460  0.36379793    -0.00500
C1265       C  0.23169573  0.13959895  0.38537458    -0.12200
C1266       C  0.26217814  0.14210679  0.38808513     0.01800
H1267       H  0.28246577  0.09435254  0.33533561     0.14700
H1268       H  0.21769024  0.15398544  0.39774237     0.14700
C1269       C  0.27382950  0.16354623  0.40779344     0.36400
C1270       C  0.22659560  0.08466166  0.32529079     0.36300
N1271       N  0.28320025  0.18077909  0.42350604    -0.44000
N1272       N  0.21731724  0.06949765  0.30752580    -0.44000
C1273       C  0.38096533  0.12817948  0.27583237    -0.00400
C1274       C  0.36313144  0.10577586  0.26548568    -0.12200
C1275       C  0.35875340  0.10211489  0.23543694     0.01900
C1276       C  0.37288272  0.12063586  0.21527095    -0.00500
C1277       C  0.39417002  0.13985680  0.22556353    -0.12200
C1278       C  0.39813642  0.14390985  0.25560830     0.01800
H1279       H  0.34977677  0.09363871  0.28071995     0.14700
H1280       H  0.40509303  0.15425115  0.21035058     0.14700
C1281       C  0.41750368  0.16669236  0.26518261     0.36400
C1282       C  0.33725966  0.08135094  0.22585143     0.36300
N1283       N  0.43296737  0.18498708  0.27283251    -0.44000
N1284       N  0.31998596  0.06476042  0.21817030    -0.44000
C1285       C  0.37733032  0.46821742  0.16598321    -0.00400
C1286       C  0.36718354  0.48252713  0.19092920    -0.12200
C1287       C  0.36636519  0.51283138  0.19252486     0.01900
C1288       C  0.37687787  0.52992566  0.16908217    -0.00500
C1289       C  0.38559920  0.51568793  0.14342302    -0.12200
C1290       C  0.38565419  0.48512069  0.14160846     0.01800
H1291       H  0.35964256  0.46987205  0.20941791     0.14700
H1292       H  0.39322871  0.52838861  0.12503209     0.14700
C1293       C  0.39545504  0.47176362  0.11498285     0.36400
C1294       C  0.35368696  0.52559828  0.21828938     0.36300
N1295       N  0.40316374  0.46109536  0.09354962    -0.44000
N1296       N  0.34332317  0.53567707  0.23888048    -0.44000
C1297       C  0.37138492  0.28132285  0.12006618    -0.00400
C1298       C  0.39429213  0.26521133  0.13256874    -0.12200
C1299       C  0.39393314  0.23459845  0.13244935     0.01900
C1300       C  0.37075051  0.21961422  0.11909013    -0.00500
C1301       C  0.34969107  0.23574393  0.10371183    -0.12200
C1302       C  0.34974798  0.26630805  0.10424746     0.01800
H1303       H  0.41081199  0.27640534  0.14515067     0.14700
H1304       H  0.33174774  0.22447800  0.09333196     0.14700
C1305       C  0.32638953  0.28186431  0.08993900     0.36400
C1306       C  0.41607925  0.21898397  0.14843194     0.36300
N1307       N  0.30781119  0.29435127  0.07827171    -0.44000
N1308       N  0.43376751  0.20637332  0.16127506    -0.44000
C1309       C  0.28079496  0.38545014  0.12756062    -0.00400
C1310       C  0.26892917  0.37130010  0.10329957    -0.12200
C1311       C  0.23854817  0.37000952  0.09943420     0.01900
C1312       C  0.21986643  0.38359630  0.11971023    -0.00500
C1313       C  0.23204888  0.40148887  0.14112849    -0.12200
C1314       C  0.26227941  0.40247976  0.14522189     0.01800
H1315       H  0.28294336  0.35804862  0.08972870     0.14700
H1316       H  0.21787761  0.41184472  0.15689744     0.14700
C1317       C  0.27362886  0.41838201  0.16982097     0.36400
C1318       C  0.22698034  0.35068912  0.07758582     0.36300
N1319       N  0.28280330  0.43098291  0.18955768    -0.44000
N1320       N  0.21759963  0.33498751  0.06034523    -0.44000
C1321       C  0.39299495  0.29504674  0.24864143    -0.00400
C1322       C  0.40506581  0.30294566  0.27578661    -0.12200
C1323       C  0.40534726  0.28333357  0.29930945     0.01900
C1324       C  0.39386370  0.25525563  0.29556461    -0.00500
C1325       C  0.38620541  0.24612020  0.26749456    -0.12200
C1326       C  0.38549845  0.26553659  0.24416162     0.01800
H1327       H  0.41177831  0.32519222  0.27955761     0.14700
H1328       H  0.37829091  0.22413720  0.26428147     0.14700
C1329       C  0.37440017  0.25472836  0.21682954     0.36400
C1330       C  0.41472022  0.29342775  0.32749709     0.36300
N1331       N  0.36497246  0.24585754  0.19525688    -0.44000
N1332       N  0.42232904  0.30154638  0.35006877    -0.44000
C1333       C  0.16320970  0.46996427  0.37728386    -0.00400
C1334       C  0.17801163  0.48377017  0.40018027    -0.12200
C1335       C  0.17831528  0.51407700  0.40283000     0.01900
C1336       C  0.16401100  0.53169981  0.38191603    -0.00500
C1337       C  0.14806079  0.51795667  0.35968864    -0.12200
C1338       C  0.14746557  0.48741834  0.35727399     0.01800
H1339       H  0.18950730  0.47074550  0.41624571     0.14700
H1340       H  0.13693135  0.53110246  0.34348235     0.14700
C1341       C  0.13171380  0.47474745  0.33328273     0.36400
C1342       C  0.19305231  0.52642865  0.42768932     0.36300
N1343       N  0.11895135  0.46467568  0.31407589    -0.44000
N1344       N  0.20475221  0.53632510  0.44765360    -0.44000
C1345       C  0.11924598  0.37618300  0.21263602    -0.00400
C1346       C  0.13550178  0.39915340  0.22419337    -0.12200
C1347       C  0.13765191  0.40284074  0.25445285     0.01900
C1348       C  0.12337776  0.38337194  0.27355808    -0.00500
C1349       C  0.10340093  0.36353969  0.26185037    -0.12200
C1350       C  0.10125269  0.35982981  0.23155111     0.01800
H1351       H  0.14928334  0.41194184  0.20990547     0.14700
H1352       H  0.09231151  0.34843504  0.27622179     0.14700
C1353       C  0.08308671  0.33676306  0.22043945     0.36400
C1354       C  0.15734391  0.42456956  0.26555440     0.36300
N1355       N  0.06868223  0.31819893  0.21149222    -0.44000
N1356       N  0.17305170  0.44201928  0.27452983    -0.44000
C1357       C  0.12190255  0.22110663  0.36505345    -0.00400
C1358       C  0.13847348  0.23549439  0.38629516    -0.12200
C1359       C  0.13911533  0.26608451  0.38754599     0.01900
C1360       C  0.12364047  0.28276616  0.36671285    -0.00500
C1361       C  0.10509125  0.26833802  0.34724231    -0.12200
C1362       C  0.10374885  0.23783897  0.34661937     0.01800
H1363       H  0.15279423  0.22293442  0.40031783     0.14700
H1364       H  0.09321171  0.28086288  0.33106793     0.14700
C1365       C  0.08562881  0.22417456  0.32493840     0.36400
C1366       C  0.15855525  0.27978429  0.40806751     0.36300
N1367       N  0.07097620  0.21327576  0.30763409    -0.44000
N1368       N  0.17417823  0.29075656  0.42447023    -0.44000
C1369       C  0.25027052  0.29742089  0.37788233    -0.00400
C1370       C  0.27839369  0.30540600  0.38720404    -0.12200
C1371       C  0.30144406  0.28531724  0.38757277     0.01900
C1372       C  0.29633839  0.25611724  0.37948650    -0.00500
C1373       C  0.26763998  0.24767096  0.37299163    -0.12200
C1374       C  0.24501572  0.26782595  0.37123807     0.01800
H1375       H  0.28300146  0.32790457  0.39237954     0.14700
H1376       H  0.26299788  0.22531476  0.36719072     0.14700
C1377       C  0.21757443  0.25734328  0.35998923     0.36400
C1378       C  0.33021319  0.29599221  0.39438831     0.36300
N1379       N  0.19608942  0.24862496  0.35015918    -0.44000
N1380       N  0.35322036  0.30477080  0.39972615    -0.44000
C1381       C  0.31048484  0.38348406  0.26421785    -0.00400
C1382       C  0.29356339  0.40891442  0.26669511    -0.12200
C1383       C  0.27042529  0.41031612  0.28690979     0.01900
C1384       C  0.26426178  0.38597715  0.30462189    -0.00500
C1385       C  0.28288921  0.36190050  0.30379025    -0.12200
C1386       C  0.30569668  0.36042882  0.28397721     0.01800
H1387       H  0.29718760  0.42681523  0.25174175     0.14700
H1388       H  0.27868327  0.34336830  0.31787704     0.14700
C1389       C  0.32293135  0.33414847  0.28359533     0.36400
C1390       C  0.25237531  0.43596358  0.28788692     0.36300
N1391       N  0.33622339  0.31278052  0.28370044    -0.44000
N1392       N  0.23804496  0.45664894  0.28884264    -0.44000
C1393       C  0.53417492  0.61546361  0.16606867    -0.00400
C1394       C  0.51932380  0.63621143  0.14898642    -0.12200
C1395       C  0.48868195  0.63829312  0.14962755     0.01900
C1396       C  0.47243148  0.61940256  0.16768635    -0.00500
C1397       C  0.48727266  0.59801257  0.18373458    -0.12200
C1398       C  0.51760438  0.59567357  0.18289897     0.01800
H1399       H  0.53171263  0.65157056  0.13596761     0.14700
H1400       H  0.47498578  0.58278611  0.19704951     0.14700
C1401       C  0.53103433  0.57227214  0.19917536     0.36400
C1402       C  0.47461888  0.66092160  0.13290078     0.36300
N1403       N  0.54175032  0.55349290  0.21217343    -0.44000
N1404       N  0.46333905  0.67909335  0.11952011    -0.44000
C1405       C  0.74949376  0.61423452  0.29899029    -0.00400
C1406       C  0.72234021  0.60161470  0.30521217    -0.12200
C1407       C  0.70003162  0.60113742  0.28414856     0.01900
C1408       C  0.70512334  0.61282755  0.25601103    -0.00500
C1409       C  0.73335801  0.62239473  0.24915819    -0.12200
C1410       C  0.75511397  0.62387861  0.27023749     0.01800
H1411       H  0.71777618  0.59415131  0.32715398     0.14700
H1412       H  0.73809737  0.63070666  0.22754115     0.14700
C1413       C  0.78224341  0.63751438  0.26190715     0.36400
C1414       C  0.67179941  0.59041131  0.29279178     0.36300
N1415       N  0.80349438  0.64916747  0.25504226    -0.44000
N1416       N  0.64920223  0.58176394  0.29982322    -0.44000
C1417       C  0.52979777  0.82636961  0.37170504    -0.00400
C1418       C  0.51412760  0.80019132  0.36913552    -0.12200
C1419       C  0.48365887  0.79968045  0.36877312     0.01900
C1420       C  0.46768076  0.82583136  0.37178725    -0.00500
C1421       C  0.48316096  0.85219853  0.37229145    -0.12200
C1422       C  0.51380845  0.85273915  0.37193943     0.01800
H1423       H  0.52569864  0.77969933  0.36743676     0.14700
H1424       H  0.47131616  0.87256209  0.37359564     0.14700
C1425       C  0.52794540  0.88071296  0.37203438     0.36400
C1426       C  0.46964045  0.77191631  0.36438430     0.36300
N1427       N  0.53914375  0.90322386  0.37183021    -0.44000
N1428       N  0.45861269  0.74963116  0.36067042    -0.44000
C1429       C  0.60647871  0.73835998  0.29839889    -0.00400
C1430       C  0.60136156  0.70945538  0.30703569    -0.12200
C1431       C  0.60149018  0.68695750  0.28648267     0.01900
C1432       C  0.60584097  0.69361648  0.25680976    -0.00500
C1433       C  0.60670015  0.72272883  0.24795374    -0.12200
C1434       C  0.60771058  0.74500871  0.26831498     0.01800
H1435       H  0.60035858  0.70404059  0.33001013     0.14700
H1436       H  0.60960564  0.72793658  0.22505947     0.14700
C1437       C  0.61328979  0.77392806  0.25745219     0.36400
C1438       C  0.60073725  0.65727686  0.29671270     0.36300
N1439       N  0.61864168  0.79666496  0.24812411    -0.44000
N1440       N  0.60024676  0.63346387  0.30486469    -0.44000
C1441       C  0.74902512  0.70178374  0.38696625    -0.00400
C1442       C  0.72067200  0.69201784  0.39358825    -0.12200
C1443       C  0.69678296  0.71104916  0.39286353     0.01900
C1444       C  0.70126288  0.74070412  0.38652538    -0.00500
C1445       C  0.72979896  0.75095478  0.38310076    -0.12200
C1446       C  0.75348490  0.73197731  0.38270481     0.01800
H1447       H  0.71665132  0.66903041  0.39688287     0.14700
H1448       H  0.73342700  0.77378902  0.37836128     0.14700
C1449       C  0.78137149  0.74422314  0.37498297     0.36400
C1450       C  0.66786350  0.69895884  0.39529792     0.36300
N1451       N  0.80333678  0.75428698  0.36790713    -0.44000
N1452       N  0.64471134  0.68916355  0.39697742    -0.44000
C1453       C  0.62075448  0.77853523  0.12224410    -0.00400
C1454       C  0.63433293  0.76138960  0.10085573    -0.12200
C1455       C  0.63288857  0.73084440  0.10210277     0.01900
C1456       C  0.61765519  0.71728844  0.12503002    -0.00500
C1457       C  0.60042734  0.73457342  0.14345426    -0.12200
C1458       C  0.60212797  0.76495603  0.14245622     0.01800
H1459       H  0.64889937  0.77163783  0.08534453     0.14700
H1460       H  0.58863978  0.72433321  0.16119770     0.14700
C1461       C  0.58778630  0.78152739  0.16492698     0.36400
C1462       C  0.65044892  0.71397908  0.08230107     0.36300
N1463       N  0.57638919  0.79477014  0.18301622    -0.44000
N1464       N  0.66455484  0.70040696  0.06649458    -0.44000
C1465       C  0.62287130  0.87810316  0.21856973    -0.00400
C1466       C  0.60004115  0.86236909  0.23133832    -0.12200
C1467       C  0.59751402  0.86067359  0.26183606     0.01900
C1468       C  0.61854259  0.87416323  0.27975660    -0.00500
C1469       C  0.63831399  0.89353038  0.26694617    -0.12200
C1470       C  0.64030336  0.89589267  0.23652951     0.01800
H1471       H  0.58627238  0.84889107  0.21777590     0.14700
H1472       H  0.65443299  0.90420760  0.28046137     0.14700
C1473       C  0.66280270  0.91402435  0.22412622     0.36400
C1474       C  0.57538275  0.84216336  0.27432381     0.36300
N1475       N  0.68080460  0.92849491  0.21408149    -0.44000
N1476       N  0.55766970  0.82733232  0.28435965    -0.44000
C1477       C  0.03619066  0.66546037  0.12823888    -0.00400
C1478       C  0.02132751  0.64416674  0.11209018    -0.12200
C1479       C  0.99068711  0.64374556  0.11084740     0.01900
C1480       C  0.97440457  0.66487912  0.12603208    -0.00500
C1481       C  0.98924340  0.68520581  0.14324572    -0.12200
C1482       C  0.01971489  0.68550583  0.14471480     0.01800
H1483       H  0.03365848  0.62865971  0.09931696     0.14700
H1484       H  0.97690066  0.70113743  0.15550119     0.14700
C1485       C  0.03347328  0.70634935  0.16372589     0.36400
C1486       C  0.97661527  0.62279010  0.09225322     0.36300
N1487       N  0.04449726  0.72294195  0.17905934    -0.44000
N1488       N  0.96537717  0.60606003  0.07723120    -0.44000
C1489       C  0.80600320  0.75796861  0.11484167    -0.00400
C1490       C  0.77707137  0.74828342  0.11639202    -0.12200
C1491       C  0.75372325  0.76778100  0.11589415     0.01900
C1492       C  0.75896313  0.79801739  0.11408918    -0.00500
C1493       C  0.78780083  0.80757501  0.10975978    -0.12200
C1494       C  0.81129167  0.78786033  0.11018823     0.01800
H1495       H  0.77268166  0.72534417  0.11960385     0.14700
H1496       H  0.79227059  0.83066195  0.10825654     0.14700
C1497       C  0.84056964  0.79919472  0.10865676     0.36400
C1498       C  0.72471355  0.75598739  0.11856439     0.36300
N1499       N  0.86402868  0.80831611  0.10747499    -0.44000
N1500       N  0.70158717  0.74631666  0.12093696    -0.44000
C1501       C  0.72292329  0.62528918  0.12606550    -0.00400
C1502       C  0.73692759  0.64517577  0.10759577    -0.12200
C1503       C  0.76747405  0.64710452  0.10703837     0.01900
C1504       C  0.78451690  0.62934637  0.12556424    -0.00500
C1505       C  0.77067838  0.60739261  0.14161545    -0.12200
C1506       C  0.74010692  0.60521649  0.14196236     0.01800
H1507       H  0.72401109  0.66095748  0.09561594     0.14700
H1508       H  0.78350670  0.59358701  0.15579843     0.14700
C1509       C  0.72670787  0.58455210  0.16153421     0.36400
C1510       C  0.78091942  0.66918578  0.08916386     0.36300
N1511       N  0.71585200  0.56810660  0.17723769    -0.44000
N1512       N  0.79187850  0.68671687  0.07478227    -0.44000
C1513       C  0.87763263  0.61582981  0.28232763    -0.00400
C1514       C  0.85675582  0.60278666  0.26425074    -0.12200
C1515       C  0.85870649  0.60499888  0.23395765     0.01900
C1516       C  0.88207843  0.62017085  0.22119933    -0.00500
C1517       C  0.90543702  0.62881347  0.23907991    -0.12200
C1518       C  0.90353614  0.62622291  0.26962948     0.01800
H1519       H  0.83695911  0.59413133  0.27384104     0.14700
H1520       H  0.92379965  0.64011584  0.22947699     0.14700
C1521       C  0.92734568  0.63608366  0.28749709     0.36400
C1522       C  0.83421690  0.59550398  0.21674610     0.36300
N1523       N  0.94676632  0.64321584  0.30185338    -0.44000
N1524       N  0.81436540  0.58802578  0.20320324    -0.44000
C1525       C  0.97209344  0.87541296  0.32780963    -0.00400
C1526       C  0.98792298  0.88653670  0.35152702    -0.12200
C1527       C  0.01872856  0.88695189  0.35144012     0.01900
C1528       C  0.03445788  0.87577526  0.32730410    -0.00500
C1529       C  0.01846149  0.86363483  0.30428566    -0.12200
C1530       C  0.98793815  0.86326338  0.30432380     0.01800
H1531       H  0.97622270  0.89598017  0.36968825     0.14700
H1532       H  0.02988798  0.85441812  0.28582445     0.14700
C1533       C  0.97360901  0.84968116  0.27989985     0.36400
C1534       C  0.03339490  0.90033949  0.37574103     0.36300
N1535       N  0.96249494  0.83870484  0.26018436    -0.44000
N1536       N  0.04509706  0.91112978  0.39523114    -0.44000
C1537       C  0.89959231  0.80381191  0.23905815    -0.00400
C1538       C  0.90304183  0.77500660  0.24863630    -0.12200
C1539       C  0.90416094  0.75218144  0.22877161     0.01900
C1540       C  0.90225801  0.75814328  0.19871097    -0.00500
C1541       C  0.90315707  0.78711456  0.18906748    -0.12200
C1542       C  0.90150098  0.81002968  0.20899450     0.01800
H1543       H  0.90242786  0.77011663  0.27176100     0.14700
H1544       H  0.90181289  0.79185067  0.16594944     0.14700
C1545       C  0.89803310  0.83916435  0.19777516     0.36400
C1546       C  0.90513903  0.72280095  0.23985918     0.36300
N1547       N  0.89516358  0.86243350  0.18858518    -0.44000
N1548       N  0.90584453  0.69934028  0.24895545    -0.44000
C1549       C  0.75379660  0.88839648  0.20166666    -0.00400
C1550       C  0.78099539  0.90001857  0.19365996    -0.12200
C1551       C  0.80433988  0.90044637  0.21351562     0.01900
C1552       C  0.80033478  0.88940743  0.24197696    -0.00500
C1553       C  0.77215456  0.88174595  0.25090210    -0.12200
C1554       C  0.74911458  0.88076636  0.23119114     0.01800
H1555       H  0.78482566  0.90638152  0.17123549     0.14700
H1556       H  0.76853618  0.87425952  0.27304519     0.14700
C1557       C  0.72171645  0.86945020  0.24174704     0.36400
C1558       C  0.83248054  0.90996309  0.20330996     0.36300
N1559       N  0.70020521  0.85978821  0.25060935    -0.44000
N1560       N  0.85492187  0.91780217  0.19495680    -0.44000
C1561       C  0.71978695  0.86876531  0.37456309    -0.00400
C1562       C  0.73259949  0.88941428  0.35605721    -0.12200
C1563       C  0.76310068  0.89145294  0.35348317     0.01900
C1564       C  0.78149961  0.87266175  0.36967380    -0.00500
C1565       C  0.76872003  0.85404213  0.39027331    -0.12200
C1566       C  0.73819091  0.85198975  0.39281048     0.01800
H1567       H  0.71883085  0.90189465  0.34141359     0.14700
H1568       H  0.78244226  0.83901736  0.40232647     0.14700
C1569       C  0.72615130  0.83014319  0.41196014     0.36400
C1570       C  0.77498505  0.91084318  0.33175068     0.36300
N1571       N  0.71642562  0.81262698  0.42723831    -0.44000
N1572       N  0.78445503  0.92636760  0.31430265    -0.44000
C1573       C  0.88407692  0.77882184  0.37261528    -0.00400
C1574       C  0.90387621  0.76172746  0.35687721    -0.12200
C1575       C  0.90431061  0.73136983  0.36000827     0.01900
C1576       C  0.88448024  0.71752471  0.37891897    -0.00500
C1577       C  0.86755118  0.73498364  0.39752559    -0.12200
C1578       C  0.86723575  0.76546338  0.39451797     0.01800
H1579       H  0.91702488  0.77181648  0.34003844     0.14700
H1580       H  0.85187834  0.72470971  0.41190199     0.14700
C1581       C  0.84675789  0.78221226  0.41144457     0.36400
C1582       C  0.92328681  0.71473781  0.34144677     0.36300
N1583       N  0.83018469  0.79564282  0.42480610    -0.44000
N1584       N  0.93890448  0.70179122  0.32659417    -0.44000
C1585       C  0.53019128  0.16809922  0.38154078    -0.00400
C1586       C  0.51560112  0.14968793  0.36192925    -0.12200
C1587       C  0.48493333  0.14921435  0.36028922     0.01900
C1588       C  0.46817191  0.16743613  0.37858568    -0.00500
C1589       C  0.48280650  0.18492944  0.39883581    -0.12200
C1590       C  0.51318208  0.18538688  0.40061052     0.01800
H1591       H  0.52815653  0.13622781  0.34720698     0.14700
H1592       H  0.47038147  0.19854666  0.41354860     0.14700
C1593       C  0.52596236  0.20375334  0.42266368     0.36400
C1594       C  0.47144408  0.13081496  0.33877828     0.36300
N1595       N  0.53608718  0.21856135  0.44028498    -0.44000
N1596       N  0.46065348  0.11604374  0.32152772    -0.44000
C1597       C  0.62955408  0.46660020  0.16889171    -0.00400
C1598       C  0.61939433  0.48170795  0.14423874    -0.12200
C1599       C  0.62019995  0.51226724  0.14296612     0.01900
C1600       C  0.63178073  0.52824670  0.16660596    -0.00500
C1601       C  0.64364841  0.51280095  0.19029607    -0.12200
C1602       C  0.64257164  0.48249689  0.19169287     0.01800
H1603       H  0.60954046  0.46969585  0.12651316     0.14700
H1604       H  0.65330850  0.52451531  0.20833659     0.14700
C1605       C  0.65529705  0.46839978  0.21683618     0.36400
C1606       C  0.60737455  0.52646998  0.11798590     0.36300
N1607       N  0.66563743  0.45750254  0.23711036    -0.44000
N1608       N  0.59702375  0.53776362  0.09793063    -0.44000
C1609       C  0.47029829  0.37229976  0.16326931    -0.00400
C1610       C  0.48557975  0.39418022  0.14834836    -0.12200
C1611       C  0.51618347  0.39529849  0.14928155     0.01900
C1612       C  0.53188055  0.37405525  0.16509659    -0.00500
C1613       C  0.51663303  0.35146995  0.17883447    -0.12200
C1614       C  0.48615044  0.35034502  0.17792125     0.01800
H1615       H  0.47356297  0.41132794  0.13737004     0.14700
H1616       H  0.52859924  0.33490410  0.19074714     0.14700
C1617       C  0.47158575  0.32637490  0.19212044     0.36400
C1618       C  0.53083361  0.41969645  0.13596496     0.36300
N1619       N  0.45996231  0.30705647  0.20333942    -0.44000
N1620       N  0.54260917  0.43935030  0.12551832    -0.44000
C1621       C  0.60574787  0.29851217  0.25965309    -0.00400
C1622       C  0.59935934  0.30778837  0.28816568    -0.12200
C1623       C  0.59933819  0.28798100  0.31155174     0.01900
C1624       C  0.60584649  0.25851821  0.30640206    -0.00500
C1625       C  0.60840745  0.24881305  0.27763613    -0.12200
C1626       C  0.60820558  0.26833456  0.25433349     0.01800
H1627       H  0.59687530  0.33077610  0.29263866     0.14700
H1628       H  0.61256824  0.22596853  0.27349790     0.14700
C1629       C  0.61237781  0.25669269  0.22547935     0.36400
C1630       C  0.59531141  0.29876533  0.34072766     0.36300
N1631       N  0.61595794  0.24702369  0.20254899    -0.44000
N1632       N  0.59194368  0.30735616  0.36412945    -0.44000
C1633       C  0.66508809  0.96650193  0.11831051    -0.00400
C1634       C  0.68286844  0.98107232  0.09816814    -0.12200
C1635       C  0.68380574  0.01139075  0.09682673     0.01900
C1636       C  0.66696512  0.02825428  0.11625132    -0.00500
C1637       C  0.64784172  0.01386265  0.13540095    -0.12200
C1638       C  0.64676860  0.98320864  0.13657213     0.01800
H1639       H  0.69638321  0.96862955  0.08336418     0.14700
H1640       H  0.63468663  0.02650874  0.15032477     0.14700
C1641       C  0.62804801  0.96956277  0.15780187     0.36400
C1642       C  0.70208389  0.02462035  0.07488150     0.36300
N1643       N  0.61305008  0.95863061  0.17484859    -0.44000
N1644       N  0.71667247  0.03516887  0.05724901    -0.44000
C1645       C  0.64306761  0.12659679  0.22162585    -0.00400
C1646       C  0.61733923  0.11529132  0.23410743    -0.12200
C1647       C  0.61298552  0.11629115  0.26468527     0.01900
C1648       C  0.63568791  0.12588296  0.28306476    -0.00500
C1649       C  0.66256659  0.13274406  0.27065061    -0.12200
C1650       C  0.66551266  0.13601086  0.24074872     0.01800
H1651       H  0.59965906  0.10854929  0.22001807     0.14700
H1652       H  0.67992804  0.14069795  0.28463438     0.14700
C1653       C  0.69011976  0.15328149  0.23146123     0.36400
C1654       C  0.58462098  0.10987358  0.27649755     0.36300
N1655       N  0.70963048  0.16785838  0.22500758    -0.44000
N1656       N  0.56186070  0.10485954  0.28608718    -0.44000
C1657       C  0.64178917  0.22003471  0.11915006    -0.00400
C1658       C  0.61488140  0.22979524  0.13008948    -0.12200
C1659       C  0.60866088  0.25977162  0.13156331     0.01900
C1660       C  0.62960082  0.28018184  0.12220226    -0.00500
C1661       C  0.65419630  0.27020030  0.10722621    -0.12200
C1662       C  0.66038118  0.24047344  0.10550029     0.01800
H1663       H  0.60003532  0.21438894  0.14003378     0.14700
H1664       H  0.67031556  0.28574978  0.09973411     0.14700
C1665       C  0.68721052  0.23171029  0.09160200     0.36400
C1666       C  0.58206160  0.26930881  0.14532656     0.36300
N1667       N  0.70873226  0.22473786  0.08051658    -0.44000
N1668       N  0.56070155  0.27707923  0.15620434    -0.44000
C1669       C  0.96635623  0.12264135  0.32866309    -0.00400
C1670       C  0.98050837  0.13922463  0.30721891    -0.12200
C1671       C  0.01095797  0.14068598  0.30572107     0.01900
C1672       C  0.02838078  0.12533012  0.32612772    -0.00500
C1673       C  0.01424341  0.10941009  0.34822200    -0.12200
C1674       C  0.98357169  0.10772673  0.34946692     0.01800
H1675       H  0.96762753  0.15097730  0.29121348     0.14700
H1676       H  0.02717111  0.09713272  0.36376130     0.14700
C1677       C  0.97043373  0.08880661  0.37084903     0.36400
C1678       C  0.02357506  0.15827824  0.28287673     0.36300
N1679       N  0.95985742  0.07344748  0.38779818    -0.44000
N1680       N  0.03355034  0.17228388  0.26444759    -0.44000
C1681       C  0.86954641  0.02932153  0.33376901    -0.00400
C1682       C  0.88425607  0.01437910  0.35609716    -0.12200
C1683       C  0.88587482  0.98386383  0.35613051     0.01900
C1684       C  0.87242440  0.96791085  0.33357846    -0.00500
C1685       C  0.85613414  0.98289367  0.31244419    -0.12200
C1686       C  0.85446047  0.01320165  0.31241933     0.01800
H1687       H  0.89588715  0.02657754  0.37257703     0.14700
H1688       H  0.84507158  0.97083448  0.29545656     0.14700
C1689       C  0.83697008  0.02712228  0.29020493     0.36400
C1690       C  0.90330991  0.96970103  0.37817031     0.36300
N1691       N  0.82272056  0.03789293  0.27237578    -0.44000
N1692       N  0.91737738  0.95836840  0.39579620    -0.44000
C1693       C  0.79557999  0.10196821  0.24471055    -0.00400
C1694       C  0.80415546  0.09151084  0.21728533    -0.12200
C1695       C  0.78375273  0.08857506  0.19469154     0.01900
C1696       C  0.75421747  0.09583464  0.19980826    -0.00500
C1697       C  0.74524924  0.10031404  0.22865811    -0.12200
C1698       C  0.76555134  0.10463898  0.25077915     0.01800
H1699       H  0.82710076  0.08827760  0.21263932     0.48300
H1700       H  0.72238236  0.10359975  0.23344900     0.14700
C1701       C  0.75477959  0.11425909  0.27863654     0.36400
C1702       C  0.79424053  0.08052766  0.16622037     0.36300
N1703       N  0.74564089  0.12258950  0.30052930    -0.44000
N1704       N  0.80269229  0.07394752  0.14344572    -0.44000
C1705       C  0.77818433  0.12169054  0.37837616    -0.00400
C1706       C  0.76566931  0.14278935  0.39647014    -0.12200
C1707       C  0.73523055  0.14548743  0.39865249     0.01900
C1708       C  0.71690940  0.12727285  0.38204857    -0.00500
C1709       C  0.72937480  0.10387323  0.36707089    -0.12200
C1710       C  0.75980516  0.10070915  0.36553081     0.01800
H1711       H  0.77950489  0.15909642  0.40637291     0.14700
H1712       H  0.71550869  0.08968579  0.35434564     0.14700
C1713       C  0.77174711  0.07783694  0.34767839     0.36400
C1714       C  0.72330586  0.16884255  0.41586212     0.36300
N1715       N  0.78128369  0.05953011  0.33333172    -0.44000
N1716       N  0.71379298  0.18739543  0.42990705    -0.44000
C1717       C  0.83628429  0.52967494  0.38100555    -0.00400
C1718       C  0.81526610  0.51468863  0.39746093    -0.12200
C1719       C  0.81402922  0.48427187  0.39820203     0.01900
C1720       C  0.83407135  0.46738629  0.38183590    -0.00500
C1721       C  0.85582715  0.48229047  0.36609319    -0.12200
C1722       C  0.85709485  0.51299040  0.36553788     0.01800
H1723       H  0.79949221  0.52686877  0.41009735     0.14700
H1724       H  0.87153004  0.46996962  0.35353604     0.14700
C1725       C  0.87924956  0.52665337  0.34795739     0.36400
C1726       C  0.79203799  0.47131158  0.41661400     0.36300
N1727       N  0.89702082  0.53757997  0.33382791    -0.44000
N1728       N  0.77436123  0.46110833  0.43139631    -0.44000
C1729       C  0.74246362  0.38729050  0.30298425    -0.00400
C1730       C  0.71460814  0.39746759  0.31079885    -0.12200
C1731       C  0.69168798  0.39772223  0.29033738     0.01900
C1732       C  0.69696859  0.38831735  0.26158449    -0.00500
C1733       C  0.72557749  0.38183681  0.25320905    -0.12200
C1734       C  0.74801530  0.38057368  0.27347334     0.01800
H1735       H  0.71009113  0.40270170  0.33334279     0.14700
H1736       H  0.73000554  0.37516527  0.23099832     0.14700
C1737       C  0.77568582  0.36939453  0.26348912     0.36400
C1738       C  0.66268758  0.40499354  0.30000016     0.36300
N1739       N  0.79724737  0.35952372  0.25500457    -0.44000
N1740       N  0.63940735  0.41081877  0.30771311    -0.44000
C1741       C  0.87915566  0.27925839  0.37438448    -0.00400
C1742       C  0.89583960  0.26503937  0.35314658    -0.12200
C1743       C  0.89610260  0.23458640  0.35132513     0.01900
C1744       C  0.87877680  0.21781674  0.37038327    -0.00500
C1745       C  0.86508737  0.23172349  0.39383243    -0.12200
C1746       C  0.86546424  0.26226753  0.39614773     0.01800
H1747       H  0.90642113  0.27775169  0.33628119     0.14700
H1748       H  0.85171634  0.21907032  0.40861597     0.14700
C1749       C  0.84839302  0.27581560  0.41875697     0.36400
C1750       C  0.91230302  0.22095156  0.32813188     0.36300
N1751       N  0.83470936  0.28668660  0.43686130    -0.44000
N1752       N  0.92544498  0.20980150  0.30980064    -0.44000
C1753       C  0.70286059  0.25342189  0.39289661    -0.00400
C1754       C  0.73146844  0.24474060  0.38642292    -0.12200
C1755       C  0.75417643  0.26469318  0.38522223     0.01900
C1756       C  0.74867169  0.29442854  0.39094121    -0.00500
C1757       C  0.72107688  0.30229010  0.40181140    -0.12200
C1758       C  0.69820864  0.28206805  0.40296775     0.01800
H1759       H  0.73592548  0.22247682  0.38011416     0.14700
H1760       H  0.71667002  0.32470773  0.40752985     0.14700
C1761       C  0.67012184  0.29183955  0.41315695     0.36400
C1762       C  0.78211486  0.25385944  0.37568847     0.36300
N1763       N  0.64770246  0.29968782  0.42158758    -0.44000
N1764       N  0.80409944  0.24476947  0.36743076    -0.44000
C1765       C  0.97261666  0.32989952  0.11679889    -0.00400
C1766       C  0.98785882  0.35033087  0.13356598    -0.12200
C1767       C  0.01856171  0.35118562  0.13336918     0.01900
C1768       C  0.03452971  0.33160360  0.11569512    -0.00500
C1769       C  0.01900513  0.31186115  0.09834376    -0.12200
C1770       C  0.98856662  0.31086485  0.09872040     0.01800
H1771       H  0.97582199  0.36490146  0.14765097     0.14700
H1772       H  0.03070946  0.29701572  0.08425712     0.14700
C1773       C  0.97417449  0.29041800  0.07972279     0.36400
C1774       C  0.03300155  0.37122822  0.15268996     0.36300
N1775       N  0.96260444  0.27409223  0.06450532    -0.44000
N1776       N  0.04460786  0.38719355  0.16826308    -0.44000
C1777       C  0.81576431  0.22944830  0.11602938    -0.00400
C1778       C  0.81482519  0.21063011  0.13999034    -0.12200
C1779       C  0.79546514  0.18743842  0.14087337     0.01900
C1780       C  0.77621178  0.18258017  0.11732497    -0.00500
C1781       C  0.77915769  0.19961422  0.09199277    -0.12200
C1782       C  0.79894872  0.22300986  0.09114752     0.01800
H1783       H  0.82846678  0.21490253  0.15882744     0.14700
H1784       H  0.76463756  0.19606936  0.07376632     0.14700
C1785       C  0.80015533  0.24113560  0.06550122     0.36400
C1786       C  0.79482324  0.17008718  0.16714431     0.36300
N1787       N  0.80122993  0.25552897  0.04482478    -0.44000
N1788       N  0.79448504  0.15674952  0.18852803    -0.44000
C1789       C  0.89010743  0.24286877  0.20100788    -0.00400
C1790       C  0.89287143  0.21379018  0.19191922    -0.12200
C1791       C  0.88946748  0.19072205  0.21165574     0.01900
C1792       C  0.88460844  0.19662567  0.24138116    -0.00500
C1793       C  0.88426549  0.22553707  0.25077082    -0.12200
C1794       C  0.88642467  0.24851205  0.23110806     0.01800
H1795       H  0.89493702  0.20889830  0.16893825     0.14700
H1796       H  0.88021032  0.23032426  0.27351729     0.14700
C1797       C  0.88176640  0.27727008  0.24262325     0.36400
C1798       C  0.88737687  0.16160359  0.20024563     0.36300
N1799       N  0.87699806  0.29993729  0.25229059    -0.44000
N1800       N  0.88525949  0.13831753  0.19106473    -0.44000
C1801       C  0.87701452  0.37507672  0.21698905    -0.00400
C1802       C  0.89837027  0.36212914  0.23489072    -0.12200
C1803       C  0.89664810  0.36413430  0.26554547     0.01900
C1804       C  0.87321303  0.37918261  0.27851542    -0.00500
C1805       C  0.85477638  0.39569574  0.26044886    -0.12200
C1806       C  0.85641356  0.39366585  0.23003008     0.01800
H1807       H  0.91448413  0.34788783  0.22518546     0.14700
H1808       H  0.83695446  0.40779164  0.27013750     0.14700
C1809       C  0.83518794  0.40914030  0.21272087     0.36400
C1810       C  0.91698802  0.34781035  0.28317042     0.36300
N1811       N  0.81822181  0.42190957  0.19910223    -0.44000
N1812       N  0.93330293  0.33475110  0.29732723    -0.44000
C1813       C  0.78252783  0.36905319  0.12186222    -0.00400
C1814       C  0.77183149  0.38894766  0.14224361    -0.12200
C1815       C  0.74178461  0.39146571  0.14722575     0.01900
C1816       C  0.72199684  0.37438923  0.13110540    -0.00500
C1817       C  0.73248966  0.35775982  0.10785023    -0.12200
C1818       C  0.76259648  0.35490523  0.10321708     0.01800
H1819       H  0.78690885  0.39983750  0.15664122     0.14700
H1820       H  0.71745445  0.34458500  0.09534840     0.14700
C1821       C  0.77273580  0.33509895  0.08110844     0.36400
C1822       C  0.73183623  0.40954496  0.17087404     0.36300
N1823       N  0.78100755  0.31930730  0.06339054    -0.44000
N1824       N  0.72377022  0.42400319  0.18979499    -0.44000
C1825       C  0.62298490  0.82619264  0.53048122    -0.00400
C1826       C  0.61233158  0.85032096  0.51482670    -0.12200
C1827       C  0.61210373  0.85067635  0.48412507     0.01900
C1828       C  0.62304756  0.82662844  0.46833168    -0.00500
C1829       C  0.63450105  0.80298187  0.48409127    -0.12200
C1830       C  0.63467617  0.80255996  0.51460007     0.01800
H1831       H  0.60313458  0.86854456  0.52658990     0.14700
H1832       H  0.64341329  0.78451734  0.47246578     0.14700
C1833       C  0.64766246  0.77768271  0.52889571     0.36400
C1834       C  0.59891681  0.87523244  0.46955711     0.36300
N1835       N  0.65814499  0.75770066  0.54016232    -0.44000
N1836       N  0.58821205  0.89490310  0.45795580    -0.44000
C1837       C  0.60841429  0.69884515  0.74570943    -0.00400
C1838       C  0.61284470  0.72767148  0.75453923    -0.12200
C1839       C  0.61268871  0.75045540  0.73441713     0.01900
C1840       C  0.60776373  0.74460409  0.70458522    -0.00500
C1841       C  0.59934712  0.71638102  0.69647274    -0.12200
C1842       C  0.59973599  0.69347192  0.71670465     0.01800
H1843       H  0.61838083  0.73222914  0.77704425     0.14700
H1844       H  0.59497204  0.71159153  0.67378769     0.14700
C1845       C  0.59392372  0.66447269  0.70635505     0.36400
C1846       C  0.61943278  0.77921086  0.74498056     0.36300
N1847       N  0.58923178  0.64126746  0.69795646    -0.44000
N1848       N  0.62515289  0.80205256  0.75371759    -0.44000
C1849       C  0.83334573  0.62429737  0.53186708    -0.00400
C1850       C  0.81223291  0.64044211  0.51661789    -0.12200
C1851       C  0.81242746  0.64213882  0.48617621     0.01900
C1852       C  0.83371122  0.62680821  0.47006187    -0.00500
C1853       C  0.85599962  0.61225730  0.48533069    -0.12200
C1854       C  0.85609182  0.61101258  0.51593069     0.01800
H1855       H  0.79524775  0.65164899  0.52858311     0.14700
H1856       H  0.87273736  0.60074588  0.47333355     0.14700
C1857       C  0.87883541  0.59456259  0.53018379     0.36400
C1858       C  0.79082853  0.66030995  0.47215215     0.36300
N1859       N  0.89716572  0.58142058  0.54151397    -0.44000
N1860       N  0.77364262  0.67505254  0.46099813    -0.44000
C1861       C  0.74091111  0.69609131  0.61125971    -0.00400
C1862       C  0.74887474  0.72484287  0.61732256    -0.12200
C1863       C  0.72813950  0.74693370  0.61877526     0.01900
C1864       C  0.69838163  0.74076709  0.61331268    -0.00500
C1865       C  0.69090479  0.71280289  0.60354710    -0.12200
C1866       C  0.71185957  0.69042447  0.60256037     0.01800
H1867       H  0.77128215  0.72980666  0.62301996     0.14700
H1868       H  0.66831430  0.70781131  0.59878704     0.14700
C1869       C  0.70242797  0.66161419  0.59463194     0.36400
C1870       C  0.73817312  0.77518449  0.62800666     0.36300
N1871       N  0.69489380  0.63854509  0.58812273    -0.44000
N1872       N  0.74658061  0.79745341  0.63601861    -0.44000
C1873       C  0.73967797  0.60129008  0.69849017    -0.00400
C1874       C  0.74864197  0.60496111  0.72743366    -0.12200
C1875       C  0.72846694  0.60731284  0.74993659     0.01900
C1876       C  0.69831678  0.60461106  0.74399179    -0.00500
C1877       C  0.68966598  0.59652653  0.71570278    -0.12200
C1878       C  0.71007962  0.59508524  0.69286332     0.01800
H1879       H  0.77149509  0.60885046  0.73215517     0.14700
H1880       H  0.66669985  0.59389924  0.71081809     0.14700
C1881       C  0.69971506  0.58987210  0.66368508     0.36400
C1882       C  0.73960232  0.61527708  0.77820246     0.36300
N1883       N  0.69138058  0.58556370  0.64031335    -0.44000
N1884       N  0.74912551  0.62240536  0.80037149    -0.44000
C1885       C  0.66938361  0.87032055  0.96822321    -0.00400
C1886       C  0.64322363  0.87493503  0.98347003    -0.12200
C1887       C  0.64243344  0.87467965  0.01413762     0.01900
C1888       C  0.66839851  0.87013081  0.03037227    -0.00500
C1889       C  0.69410306  0.86393990  0.01497175    -0.12200
C1890       C  0.69483351  0.86366818  0.98455950     0.01800
H1891       H  0.62338441  0.87950625  0.97144142     0.14700
H1892       H  0.71409167  0.85932568  0.02675176     0.14700
C1893       C  0.72220785  0.85593192  0.97104604     0.36400
C1894       C  0.61471346  0.87968947  0.02805903     0.36300
N1895       N  0.74420705  0.84967239  0.96045827    -0.44000
N1896       N  0.59237851  0.88349694  0.03909546    -0.44000
C1897       C  0.62474022  0.88088370  0.77913461    -0.00400
C1898       C  0.64526879  0.89586188  0.76203246    -0.12200
C1899       C  0.64394303  0.89528846  0.73151490     0.01900
C1900       C  0.62191930  0.87929711  0.71742428    -0.00500
C1901       C  0.59912893  0.86784403  0.73443184    -0.12200
C1902       C  0.60026601  0.86881306  0.76511860     0.01800
H1903       H  0.66414441  0.90546046  0.77248200     0.14700
H1904       H  0.58203963  0.85544182  0.72392836     0.14700
C1905       C  0.57732507  0.85527850  0.78164650     0.36400
C1906       C  0.66721139  0.90856920  0.71507208     0.36300
N1907       N  0.55844610  0.84492248  0.79468987    -0.44000
N1908       N  0.68575630  0.91937002  0.70187933    -0.44000
C1909       C  0.62230750  0.71740575  0.87625462    -0.00400
C1910       C  0.60097759  0.73396821  0.86177448    -0.12200
C1911       C  0.60150234  0.76447458  0.86277483     0.01900
C1912       C  0.62356400  0.77872861  0.87856107    -0.00500
C1913       C  0.64239189  0.76199846  0.89607023    -0.12200
C1914       C  0.64208319  0.73156186  0.89483454     0.01800
H1915       H  0.58586160  0.72322672  0.84718372     0.14700
H1916       H  0.65969014  0.77272015  0.90803252     0.14700
C1917       C  0.66452306  0.71545117  0.90995292     0.36400
C1918       C  0.58112881  0.78053020  0.84505473     0.36300
N1919       N  0.68252120  0.70247990  0.92198356    -0.44000
N1920       N  0.56440011  0.79302527  0.83091663    -0.44000
C1921       C  0.87386655  0.66459397  0.97124705    -0.00400
C1922       C  0.86045511  0.68749813  0.98636220    -0.12200
C1923       C  0.86111205  0.68892486  0.01675129     0.01900
C1924       C  0.87544824  0.66700901  0.03303768    -0.00500
C1925       C  0.88743056  0.64317605  0.01814650    -0.12200
C1926       C  0.88691211  0.64185437  0.98754560     0.01800
H1927       H  0.84969601  0.70477786  0.97431581     0.14700
H1928       H  0.89845051  0.62618896  0.03035754     0.14700
C1929       C  0.90156591  0.61790662  0.97356749     0.36400
C1930       C  0.84672204  0.71320953  0.03054348     0.36300
N1931       N  0.91340576  0.59873480  0.96239627    -0.44000
N1932       N  0.83522252  0.73272212  0.04148330    -0.44000
C1933       C  0.87579405  0.61987279  0.78290124    -0.00400
C1934       C  0.85831218  0.59799974  0.77088311    -0.12200
C1935       C  0.85604929  0.59491986  0.74051562     0.01900
C1936       C  0.87158468  0.61380916  0.72181048    -0.00500
C1937       C  0.89212758  0.63274940  0.73395811    -0.12200
C1938       C  0.89425829  0.63596587  0.76426822     0.01800
H1939       H  0.84390490  0.58566015  0.78494495     0.14700
H1940       H  0.90394934  0.64754303  0.71984871     0.14700
C1941       C  0.91291549  0.65847247  0.77570828     0.36400
C1942       C  0.83518280  0.57451598  0.72894974     0.36300
N1943       N  0.92773575  0.67654263  0.78498287    -0.44000
N1944       N  0.81850771  0.55813970  0.71965169    -0.44000
C1945       C  0.77855620  0.61652703  0.88286506    -0.00400
C1946       C  0.76475629  0.59632622  0.86467216    -0.12200
C1947       C  0.73417027  0.59529283  0.86270720     0.01900
C1948       C  0.71696682  0.61537119  0.87832651    -0.00500
C1949       C  0.73052782  0.63244603  0.89963337    -0.12200
C1950       C  0.76112822  0.63286273  0.90224323     0.01800
H1951       H  0.77778446  0.58358059  0.84971652     0.14700
H1952       H  0.71757566  0.64780130  0.91196173     0.14700
C1953       C  0.77432333  0.65309381  0.92227515     0.36400
C1954       C  0.72089331  0.57580914  0.84198837     0.36300
N1955       N  0.78496073  0.66927808  0.93830246    -0.44000
N1956       N  0.71011607  0.56029035  0.82540292    -0.44000
C1957       C  0.79320337  0.74972355  0.89151510    -0.00400
C1958       C  0.80242419  0.77803261  0.89864877    -0.12200
C1959       C  0.78299359  0.80164094  0.89765232     0.01900
C1960       C  0.75358518  0.79693626  0.88994430    -0.00500
C1961       C  0.74372629  0.76825781  0.88683809    -0.12200
C1962       C  0.76306060  0.74485433  0.88707549     0.01800
H1963       H  0.82534375  0.78226189  0.90249522     0.14700
H1964       H  0.72094390  0.76422938  0.88190908     0.14700
C1965       C  0.75126212  0.71669715  0.88000114     0.36400
C1966       C  0.79447035  0.83048065  0.90200235     0.36300
N1967       N  0.74137685  0.69452549  0.87358167    -0.44000
N1968       N  0.80380681  0.85354080  0.90556160    -0.44000
C1969       C  0.87828285  0.77452771  0.63182421    -0.00400
C1970       C  0.86543877  0.76140618  0.60744165    -0.12200
C1971       C  0.86400435  0.73088185  0.60530300     0.01900
C1972       C  0.87537987  0.71317948  0.62783811    -0.00500
C1973       C  0.89146826  0.72632052  0.65011376    -0.12200
C1974       C  0.89321574  0.75666793  0.65210796     0.01800
H1975       H  0.85382050  0.77477193  0.59177146     0.14700
H1976       H  0.90015547  0.71298858  0.66762252     0.14700
C1977       C  0.90784732  0.76908971  0.67698119     0.36400
C1978       C  0.84794318  0.71815152  0.58152654     0.36300
N1979       N  0.91952888  0.77911380  0.69687755    -0.44000
N1980       N  0.83519736  0.70776995  0.56247413    -0.44000
C1981       C  0.87362152  0.80396284  0.76382018    -0.00400
C1982       C  0.84749365  0.79471376  0.77659026    -0.12200
C1983       C  0.84700901  0.77301584  0.79758568     0.01900
C1984       C  0.87322108  0.75937804  0.80642429    -0.00500
C1985       C  0.89984544  0.77009869  0.79563383    -0.12200
C1986       C  0.90022177  0.79252007  0.77450308     0.01800
H1987       H  0.82693082  0.80428178  0.76978310     0.14700
H1988       H  0.92013423  0.76039622  0.80291163     0.14700
C1989       C  0.92785618  0.80278057  0.76369593     0.36400
C1990       C  0.81891763  0.76537582  0.80968841     0.36300
N1991       N  0.94999504  0.81125224  0.75514684    -0.44000
N1992       N  0.79633050  0.75935093  0.81909987    -0.44000
C1993       C  0.77897954  0.87466309  0.61832206    -0.00400
C1994       C  0.76478143  0.85597639  0.59887280    -0.12200
C1995       C  0.73418572  0.85486315  0.59767263     0.01900
C1996       C  0.71729723  0.87214217  0.61664389    -0.00500
C1997       C  0.73139310  0.89374656  0.63287722    -0.12200
C1998       C  0.76206110  0.89520898  0.63373607     0.01800
H1999       H  0.77745874  0.84008071  0.58694049     0.14700
H2000       H  0.71870472  0.90715564  0.64752949     0.14700
C2001       C  0.77564653  0.91511499  0.65384901     0.36400
C2002       C  0.72053657  0.83326652  0.57945372     0.36300
N2003       N  0.78658097  0.93090003  0.67007822    -0.44000
N2004       N  0.70949478  0.81596615  0.56494521    -0.44000
C2005       C  0.79178947  0.88960402  0.74948962    -0.00400
C2006       C  0.80098870  0.89778978  0.77758883    -0.12200
C2007       C  0.78162907  0.89752698  0.80114441     0.01900
C2008       C  0.75226676  0.88990544  0.79648371    -0.00500
C2009       C  0.74229208  0.88598393  0.76792636    -0.12200
C2010       C  0.76161531  0.88516392  0.74459177     0.01800
H2011       H  0.82387631  0.90177820  0.78185075     0.14700
H2012       H  0.71950114  0.88092032  0.76411006     0.14700
C2013       C  0.74970340  0.87664595  0.71682819     0.36400
C2014       C  0.79319278  0.90201571  0.83001904     0.36300
N2015       N  0.73953566  0.86902819  0.69511922    -0.44000
N2016       N  0.80256185  0.90553676  0.85313451    -0.44000
C2017       C  0.16379965  0.62769451  0.52973338    -0.00400
C2018       C  0.14354739  0.61132754  0.51374383    -0.12200
C2019       C  0.14358450  0.61186153  0.48307063     0.01900
C2020       C  0.16400889  0.62928113  0.46791179    -0.00500
C2021       C  0.18300377  0.64687483  0.48405688    -0.12200
C2022       C  0.18297946  0.64634271  0.51452982     0.01800
H2023       H  0.12874949  0.59691290  0.52516298     0.14700
H2024       H  0.19848614  0.66067443  0.47275951     0.14700
C2025       C  0.20287345  0.66532665  0.52968873     0.36400
C2026       C  0.12409692  0.59259716  0.46779341     0.36300
N2027       N  0.21875461  0.68068053  0.54170866    -0.44000
N2028       N  0.10856182  0.57707258  0.45553654    -0.44000
C2029       C  0.46516124  0.83054717  0.62606761    -0.00400
C2030       C  0.48065362  0.85389012  0.61365725    -0.12200
C2031       C  0.51141594  0.85406720  0.61298652     0.01900
C2032       C  0.52744315  0.83054701  0.62503115    -0.00500
C2033       C  0.51186355  0.80793098  0.63849455    -0.12200
C2034       C  0.48132017  0.80779967  0.63931580     0.01800
H2035       H  0.46872200  0.87152349  0.60339361     0.14700
H2036       H  0.52365960  0.79002780  0.64846433     0.14700
C2037       C  0.46722730  0.78410239  0.65444438     0.36400
C2038       C  0.52578972  0.87783518  0.59832346     0.36300
N2039       N  0.45595656  0.76514769  0.66661193    -0.44000
N2040       N  0.53727414  0.89688495  0.58651170    -0.44000
C2041       C  0.37056315  0.83205300  0.52941200    -0.00400
C2042       C  0.38194908  0.85615168  0.51432137    -0.12200
C2043       C  0.38266176  0.85690093  0.48365047     0.01900
C2044       C  0.37183692  0.83309214  0.46744320    -0.00500
C2045       C  0.35873368  0.81000921  0.48275491    -0.12200
C2046       C  0.35788349  0.80932806  0.51315114     0.01800
H2047       H  0.39128715  0.87400550  0.52650302     0.14700
H2048       H  0.34920944  0.79200759  0.47092370     0.14700
C2049       C  0.34320687  0.78516120  0.52693109     0.36400
C2050       C  0.39552605  0.88188528  0.46965404     0.36300
N2051       N  0.33130094  0.76576883  0.53771269    -0.44000
N2052       N  0.40575109  0.90200738  0.45848888    -0.44000
C2053       C  0.25337711  0.69922967  0.60538833    -0.00400
C2054       C  0.24407415  0.72812594  0.60853155    -0.12200
C2055       C  0.26403397  0.75090455  0.60911206     0.01900
C2056       C  0.29411778  0.74501105  0.60606145    -0.00500
C2057       C  0.30291674  0.71675576  0.59841831    -0.12200
C2058       C  0.28278600  0.69380173  0.59803934     0.01800
H2059       H  0.22128194  0.73275159  0.61284473     0.14700
H2060       H  0.32586050  0.71205762  0.59526435     0.14700
C2061       C  0.29341724  0.66480210  0.59254517     0.36400
C2062       C  0.25306953  0.77974899  0.61497194     0.36300
N2063       N  0.30198922  0.64160719  0.58794258    -0.44000
N2064       N  0.24416861  0.80271737  0.62003200    -0.44000
C2065       C  0.46622541  0.62428755  0.83291934    -0.00400
C2066       C  0.48152326  0.63724052  0.80980208    -0.12200
C2067       C  0.51201428  0.63818323  0.80942876     0.01900
C2068       C  0.52830634  0.62557786  0.83242282    -0.00500
C2069       C  0.51313401  0.61405236  0.85640068    -0.12200
C2070       C  0.48243099  0.61331123  0.85687637     0.01800
H2071       H  0.46956581  0.64663541  0.79167291     0.14700
H2072       H  0.52528022  0.60448944  0.87430470     0.14700
C2073       C  0.46838257  0.59980141  0.88154077     0.36400
C2074       C  0.52590678  0.65282665  0.78528855     0.36300
N2075       N  0.45723633  0.58897382  0.90138507    -0.44000
N2076       N  0.53684372  0.66471379  0.76594363    -0.44000
C2077       C  0.25488633  0.60653047  0.69797258    -0.00400
C2078       C  0.24582297  0.61103096  0.72675070    -0.12200
C2079       C  0.26580841  0.61201359  0.74955801     0.01900
C2080       C  0.29580665  0.60725288  0.74403839    -0.00500
C2081       C  0.30432227  0.59871518  0.71589193    -0.12200
C2082       C  0.28417263  0.59862081  0.69276671     0.01800
H2083       H  0.22319016  0.61632987  0.73114639     0.14700
H2084       H  0.32716388  0.59475685  0.71133351     0.14700
C2085       C  0.29472759  0.59321011  0.66371430     0.36400
C2086       C  0.25484873  0.62066586  0.77771496     0.36300
N2087       N  0.30326063  0.58885987  0.64043692    -0.44000
N2088       N  0.24564471  0.62831497  0.79984497    -0.44000
C2089       C  0.38180165  0.70036246  0.74425234    -0.00400
C2090       C  0.37646562  0.72928555  0.75227837    -0.12200
C2091       C  0.37489143  0.75148798  0.73151626     0.01900
C2092       C  0.37974863  0.74530430  0.70172511    -0.00500
C2093       C  0.38814670  0.71692149  0.69405003    -0.12200
C2094       C  0.38884474  0.69442129  0.71486144     0.01800
H2095       H  0.37156016  0.73435228  0.77480762     0.14700
H2096       H  0.39192982  0.71173405  0.67135437     0.14700
C2097       C  0.39414623  0.66519671  0.70482373     0.36400
C2098       C  0.36626067  0.77990060  0.74156998     0.36300
N2099       N  0.39828761  0.64178640  0.69667165    -0.44000
N2100       N  0.35866836  0.80229167  0.75006450    -0.44000
C2101       C  0.96620252  0.87283007  0.66837393    -0.00400
C2102       C  0.98141957  0.88960121  0.68893414    -0.12200
C2103       C  0.01189462  0.89026244  0.68976742     0.01900
C2104       C  0.02839636  0.87372920  0.66978681    -0.00500
C2105       C  0.01343778  0.85732134  0.64875622    -0.12200
C2106       C  0.98267636  0.85657296  0.64799824     0.01800
H2107       H  0.96944158  0.90272405  0.70442908     0.14700
H2108       H  0.02579951  0.84451785  0.63330108     0.14700
C2109       C  0.96876223  0.83809357  0.62683730     0.36400
C2110       C  0.02561258  0.90921802  0.71071656     0.36300
N2111       N  0.95761421  0.82319882  0.60992293    -0.44000
N2112       N  0.03654157  0.92449061  0.72743317    -0.44000
C2113       C  0.12406610  0.71854972  0.61936292    -0.00400
C2114       C  0.14348442  0.73453674  0.60206611    -0.12200
C2115       C  0.14392334  0.76491438  0.60299219     0.01900
C2116       C  0.12341441  0.78008347  0.62003214    -0.00500
C2117       C  0.10132111  0.76413143  0.63408459    -0.12200
C2118       C  0.10192865  0.73349233  0.63444333     0.01800
H2119       H  0.16097103  0.72321528  0.59091005     0.14700
H2120       H  0.08595547  0.77544742  0.64795690     0.14700
C2121       C  0.08246854  0.71809821  0.65372122     0.36400
C2122       C  0.16819142  0.77954922  0.58956140     0.36300
N2123       N  0.06713279  0.70576339  0.66945206    -0.44000
N2124       N  0.18818551  0.79052363  0.57894451    -0.44000
C2125       C  0.27708588  0.88148101  0.61644524    -0.00400
C2126       C  0.25959770  0.86862306  0.59483332    -0.12200
C2127       C  0.22899368  0.87116286  0.59574198     0.01900
C2128       C  0.21567638  0.88535972  0.61936499    -0.00500
C2129       C  0.23331130  0.90243534  0.63759553    -0.12200
C2130       C  0.26382531  0.90075893  0.63615331     0.01800
H2131       H  0.26957237  0.85435502  0.57896014     0.14700
H2132       H  0.22332245  0.91414242  0.65545573     0.14700
C2133       C  0.28087891  0.91571073  0.65784204     0.36400
C2134       C  0.21169776  0.85772999  0.57333274     0.36300
N2135       N  0.29448344  0.92765043  0.67530852    -0.44000
N2136       N  0.19792123  0.84782099  0.55475244    -0.44000
C2137       C  0.12308228  0.66622190  0.96907180    -0.00400
C2138       C  0.13467511  0.69059336  0.98338508    -0.12200
C2139       C  0.13623293  0.69193249  0.01379334     0.01900
C2140       C  0.12603446  0.66844381  0.03088566    -0.00500
C2141       C  0.11522448  0.64367334  0.01663876    -0.12200
C2142       C  0.11348595  0.64244151  0.98609802     0.01800
H2143       H  0.14262613  0.70886188  0.97070346     0.14700
H2144       H  0.10715147  0.62555190  0.02943757     0.14700
C2145       C  0.10018480  0.61726492  0.97302237     0.36400
C2146       C  0.14907790  0.71748992  0.02670400     0.36300
N2147       N  0.08936175  0.59712036  0.96260925    -0.44000
N2148       N  0.15940409  0.73800969  0.03689555    -0.44000
C2149       C  0.96624783  0.66585880  0.87401464    -0.00400
C2150       C  0.98162172  0.63975408  0.87880321    -0.12200
C2151       C  0.01238107  0.63890154  0.87846989     0.01900
C2152       C  0.02859130  0.66471494  0.87357996    -0.00500
C2153       C  0.01303312  0.69036804  0.86744810    -0.12200
C2154       C  0.98255548  0.69115572  0.86731829     0.01800
H2155       H  0.96962318  0.62001766  0.88352810     0.14700
H2156       H  0.02475185  0.71026753  0.86266537     0.14700
C2157       C  0.96885999  0.71838585  0.85948121     0.36400
C2158       C  0.02646558  0.61131758  0.88376540     0.36300
N2159       N  0.95807677  0.74025668  0.85312033    -0.44000
N2160       N  0.03765988  0.58911167  0.88781893    -0.44000
C2161       C  0.12181375  0.62112678  0.78102959    -0.00400
C2162       C  0.13984585  0.60084470  0.76713160    -0.12200
C2163       C  0.14149791  0.59989263  0.73659973     0.01900
C2164       C  0.12504976  0.61957140  0.71947707    -0.00500
C2165       C  0.10465635  0.63756059  0.73330326    -0.12200
C2166       C  0.10288442  0.63839880  0.76384762     0.01800
H2167       H  0.15488987  0.58793167  0.78003961     0.14700
H2168       H  0.09238691  0.65318007  0.72045918     0.14700
C2169       C  0.08422201  0.65986635  0.77720938     0.36400
C2170       C  0.16276436  0.58095964  0.72328153     0.36300
N2171       N  0.06942003  0.67706432  0.78809185    -0.44000
N2172       N  0.17977695  0.56590272  0.71243515    -0.44000
C2173       C  0.21684370  0.61612634  0.88333149    -0.00400
C2174       C  0.22988155  0.59660084  0.86393988    -0.12200
C2175       C  0.26032893  0.59533916  0.86126771     0.01900
C2176       C  0.27802399  0.61413041  0.87789305    -0.00500
C2177       C  0.26521583  0.62984451  0.90063970    -0.12200
C2178       C  0.23471729  0.63067381  0.90366077     0.01800
H2179       H  0.21639737  0.58517534  0.84832514     0.14700
H2180       H  0.27862346  0.64408565  0.91378507     0.14700
C2181       C  0.22205341  0.64970492  0.92517903     0.36400
C2182       C  0.27283438  0.57738369  0.83874730     0.36300
N2183       N  0.21187300  0.66502491  0.94232757    -0.44000
N2184       N  0.28290078  0.56311727  0.82064865    -0.44000
C2185       C  0.11562414  0.75180871  0.79721553    -0.00400
C2186       C  0.11980917  0.74351058  0.76816768    -0.12200
C2187       C  0.12104298  0.76415091  0.74579019     0.01900
C2188       C  0.11710708  0.79406447  0.75209490    -0.00500
C2189       C  0.11058578  0.80204633  0.78091684    -0.12200
C2190       C  0.11036495  0.78139005  0.80346786     0.01800
H2191       H  0.12391296  0.72084256  0.76312664     0.14700
H2192       H  0.10794149  0.82481337  0.78633302     0.14700
C2193       C  0.10807533  0.79164845  0.83305430     0.36400
C2194       C  0.12835111  0.75382608  0.71706320     0.36300
N2195       N  0.10659589  0.79984561  0.85679456    -0.44000
N2196       N  0.13490593  0.74530353  0.69433231    -0.44000
C2197       C  0.33147994  0.86799985  0.96641747    -0.00400
C2198       C  0.35579071  0.88012591  0.98047124    -0.12200
C2199       C  0.35782688  0.88029573  0.01094622     0.01900
C2200       C  0.33525518  0.86787245  0.02779540    -0.00500
C2201       C  0.31244833  0.85336185  0.01344716    -0.12200
C2202       C  0.31024356  0.85348636  0.98319748     0.01800
H2203       H  0.37247539  0.89090005  0.96769747     0.14700
H2204       H  0.29546828  0.84274023  0.02597645     0.14700
C2205       C  0.28570991  0.83877834  0.97012158     0.36400
C2206       C  0.38232565  0.89488824  0.02408277     0.36300
N2207       N  0.26597733  0.82700232  0.95983159    -0.44000
N2208       N  0.40204237  0.90657228  0.03450100    -0.44000
C2209       C  0.23858537  0.79972850  0.88975426    -0.00400
C2210       C  0.24842677  0.77090966  0.89037933    -0.12200
C2211       C  0.22883981  0.74781862  0.89054042     0.01900
C2212       C  0.19853239  0.75336115  0.89097124    -0.00500
C2213       C  0.18880343  0.78217045  0.89408775    -0.12200
C2214       C  0.20852990  0.80540477  0.89309770     0.01800
H2215       H  0.27156273  0.76638555  0.88837712     0.14700
H2216       H  0.16561114  0.78676257  0.89437118     0.14700
C2217       C  0.19699401  0.83457292  0.89224480     0.36400
C2218       C  0.24073753  0.71894673  0.88773259     0.36300
N2219       N  0.18745151  0.85784535  0.89151807    -0.44000
N2220       N  0.25102302  0.69618934  0.88488068    -0.44000
C2221       C  0.24156220  0.89187189  0.79814224    -0.00400
C2222       C  0.25021578  0.88660426  0.76935563    -0.12200
C2223       C  0.22986693  0.88522114  0.74689157     0.01900
C2224       C  0.20002313  0.89016161  0.75277431    -0.00500
C2225       C  0.19193725  0.89963084  0.78070036    -0.12200
C2226       C  0.21244336  0.90040424  0.80347021     0.01800
H2227       H  0.27272675  0.88097640  0.76475840     0.14700
H2228       H  0.16918851  0.90395735  0.78540003     0.14700
C2229       C  0.20245129  0.90766291  0.83230435     0.36400
C2230       C  0.24014209  0.87604064  0.71867846     0.36300
N2231       N  0.19435728  0.91376444  0.85533521    -0.44000
N2232       N  0.24861833  0.86792181  0.69644252    -0.44000
C2233       C  0.37080483  0.77779268  0.87821028    -0.00400
C2234       C  0.39136516  0.76424581  0.86024944    -0.12200
C2235       C  0.39351058  0.73379122  0.85930591     0.01900
C2236       C  0.37474452  0.71637556  0.87642802    -0.00500
C2237       C  0.35681203  0.73001848  0.89698004    -0.12200
C2238       C  0.35490247  0.76049373  0.89813803     0.01800
H2239       H  0.40345671  0.77723059  0.84466438     0.14700
H2240       H  0.34207417  0.71695778  0.91000816     0.14700
C2241       C  0.33429423  0.77347875  0.91797113     0.36400
C2242       C  0.41243847  0.72083857  0.83784689     0.36300
N2243       N  0.31788453  0.78377147  0.93404009    -0.44000
N2244       N  0.42757415  0.71048459  0.82061164    -0.44000
C2245       C  0.37029051  0.87774852  0.77843825    -0.00400
C2246       C  0.39148130  0.86095433  0.76433582    -0.12200
C2247       C  0.39291950  0.86042375  0.73376832     0.01900
C2248       C  0.37253780  0.87641517  0.71705358    -0.00500
C2249       C  0.35395140  0.89597705  0.73124217    -0.12200
C2250       C  0.35307273  0.89707614  0.76175861     0.01800
H2251       H  0.40468447  0.84591877  0.77694399     0.14700
H2252       H  0.33818557  0.90830591  0.71864376     0.14700
C2253       C  0.33217394  0.91599106  0.77566345     0.36400
C2254       C  0.41270895  0.84028888  0.71996570     0.36300
N2255       N  0.31565987  0.93117792  0.78707684    -0.44000
N2256       N  0.42840250  0.82412636  0.70874829    -0.44000
C2257       C  0.36777777  0.17034950  0.52715406    -0.00400
C2258       C  0.38261523  0.14830954  0.51206596    -0.12200
C2259       C  0.38420365  0.14835194  0.48146520     0.01900
C2260       C  0.37052417  0.17073285  0.46513227    -0.00500
C2261       C  0.35452374  0.19194429  0.48026275    -0.12200
C2262       C  0.35291009  0.19189590  0.51075157     0.01800
H2263       H  0.39416171  0.13165672  0.52424876     0.14700
H2264       H  0.34329990  0.20890630  0.46819613     0.14700
C2265       C  0.33545749  0.21411812  0.52451380     0.36400
C2266       C  0.40152897  0.12612201  0.46767976     0.36300
N2267       N  0.32143125  0.23190533  0.53547670    -0.44000
N2268       N  0.41548571  0.10830900  0.45668577    -0.44000
C2269       C  0.16218918  0.46800844  0.62149309    -0.00400
C2270       C  0.18629674  0.48241156  0.63362747    -0.12200
C2271       C  0.18768801  0.51269996  0.63486758     0.01900
C2272       C  0.16444664  0.52975619  0.62390071    -0.00500
C2273       C  0.13945895  0.51549829  0.61337889    -0.12200
C2274       C  0.13818678  0.48492351  0.61195611     0.01800
H2275       H  0.20459814  0.46989483  0.64189357     0.14700
H2276       H  0.12140380  0.52826426  0.60499600     0.14700
C2277       C  0.11277438  0.47174350  0.59907114     0.36400
C2278       C  0.21341155  0.52551953  0.64766197     0.36300
N2279       N  0.09237532  0.46126672  0.58866762    -0.44000
N2280       N  0.23413778  0.53555498  0.65786184    -0.44000
C2281       C  0.16619396  0.37313510  0.52528128    -0.00400
C2282       C  0.14315283  0.38619833  0.50985437    -0.12200
C2283       C  0.14280800  0.38676976  0.47921732     0.01900
C2284       C  0.16583029  0.37381730  0.46327453    -0.00500
C2285       C  0.18811698  0.35958806  0.47889727    -0.12200
C2286       C  0.18846178  0.35907177  0.50939897     0.01800
H2287       H  0.12589145  0.39700909  0.52177688     0.14700
H2288       H  0.20562872  0.34890234  0.46722414     0.14700
C2289       C  0.21166526  0.34332348  0.52379699     0.36400
C2290       C  0.11930358  0.40210239  0.46495902     0.36300
N2291       N  0.23022326  0.33058415  0.53522204    -0.44000
N2292       N  0.10043712  0.41442295  0.45358431    -0.44000
C2293       C  0.25122378  0.29898096  0.61034439    -0.00400
C2294       C  0.24239230  0.27062173  0.61725034    -0.12200
C2295       C  0.26222826  0.24778777  0.61825169     0.01900
C2296       C  0.29196246  0.25306277  0.61209293    -0.00500
C2297       C  0.30013288  0.28073473  0.60171667    -0.12200
C2298       C  0.28004543  0.30372330  0.60083490     0.01800
H2299       H  0.22004436  0.26653432  0.62378368     0.14700
H2300       H  0.32270877  0.28507746  0.59630317     0.14700
C2301       C  0.29026184  0.33221430  0.59251213     0.36400
C2302       C  0.25130064  0.21981682  0.62749588     0.36300
N2303       N  0.29852420  0.35500381  0.58575352    -0.44000
N2304       N  0.24207768  0.19775771  0.63533565    -0.44000
C2305       C  0.37064195  0.46639987  0.83047946    -0.00400
C2306       C  0.36100388  0.48250825  0.80625285    -0.12200
C2307       C  0.36089592  0.51286797  0.80614526     0.01900
C2308       C  0.37078592  0.52847244  0.83076731    -0.00500
C2309       C  0.37878856  0.51256990  0.85579184    -0.12200
C2310       C  0.37881790  0.48186887  0.85587918     0.01800
H2311       H  0.35367710  0.47131051  0.78684273     0.14700
H2312       H  0.38604052  0.52410290  0.87501663     0.14700
C2313       C  0.38837376  0.46706604  0.88194980     0.36400
C2314       C  0.35006064  0.52720018  0.78025634     0.36300
N2315       N  0.39598180  0.45528723  0.90293116    -0.44000
N2316       N  0.34136603  0.53835399  0.75936049    -0.44000
C2317       C  0.29581122  0.39049003  0.73973224    -0.00400
C2318       C  0.26654293  0.38863360  0.74850092    -0.12200
C2319       C  0.24386564  0.38923234  0.72818395     0.01900
C2320       C  0.25015341  0.39163881  0.69813461    -0.00500
C2321       C  0.27902941  0.39754312  0.68973918    -0.12200
C2322       C  0.30182469  0.39715208  0.71023265     0.01800
H2323       H  0.26135926  0.38490726  0.77125636     0.14700
H2324       H  0.28420830  0.40018072  0.66685219     0.14700
C2325       C  0.33115872  0.40166835  0.69990662     0.36400
C2326       C  0.21450012  0.38573663  0.73885316     0.36300
N2327       N  0.35460360  0.40561614  0.69155019    -0.44000
N2328       N  0.19108399  0.38270052  0.74762509    -0.44000
C2329       C  0.38884588  0.30007870  0.73802511    -0.00400
C2330       C  0.38461897  0.27130427  0.74731902    -0.12200
C2331       C  0.38362392  0.24851139  0.72746515     0.01900
C2332       C  0.38718854  0.25429842  0.69745314    -0.00500
C2333       C  0.39498446  0.28251354  0.68854374    -0.12200
C2334       C  0.39560830  0.30549321  0.70857889     0.01800
H2335       H  0.37970240  0.26689165  0.77000492     0.14700
H2336       H  0.39791237  0.28717668  0.66557551     0.14700
C2337       C  0.39997732  0.33464013  0.69783209     0.36400
C2338       C  0.37693757  0.21980865  0.73845460     0.36300
N2339       N  0.40348122  0.35797330  0.68907636    -0.44000
N2340       N  0.37129072  0.19701296  0.74752087    -0.44000
C2341       C  0.12800774  0.33336227  0.96192348    -0.00400
C2342       C  0.14452066  0.31230687  0.97690748    -0.12200
C2343       C  0.14610072  0.31181213  0.00737561     0.01900
C2344       C  0.13056775  0.33254802  0.02399656    -0.00500
C2345       C  0.11531124  0.35460429  0.00908219    -0.12200
C2346       C  0.11390200  0.35520065  0.97842563     0.01800
H2347       H  0.15615497  0.29581337  0.96472084     0.14700
H2348       H  0.10339296  0.37077216  0.02141141     0.14700
C2349       C  0.09650425  0.37754734  0.96472532     0.36400
C2350       C  0.16428748  0.28990588  0.02087720     0.36300
N2351       N  0.08255822  0.39551943  0.95381654    -0.44000
N2352       N  0.17895399  0.27239372  0.03159787    -0.44000
C2353       C  0.21547647  0.37618319  0.86600072    -0.00400
C2354       C  0.23041351  0.36127026  0.88826950    -0.12200
C2355       C  0.26105188  0.36059601  0.88894538     0.01900
C2356       C  0.27706624  0.37578714  0.86764729    -0.00500
C2357       C  0.26203233  0.39359310  0.84773171    -0.12200
C2358       C  0.23151233  0.39353451  0.84645094     0.01800
H2359       H  0.21827377  0.34744821  0.90308894     0.14700
H2360       H  0.27416734  0.40493229  0.83091142     0.14700
C2361       C  0.21722312  0.40915104  0.82313908     0.36400
C2362       C  0.27551465  0.34176929  0.90959941     0.36300
N2363       N  0.20579941  0.42168665  0.80445281    -0.44000
N2364       N  0.28709950  0.32666618  0.92616824    -0.44000
C2365       C  0.11174718  0.37773017  0.71106975    -0.00400
C2366       C  0.09432953  0.35634282  0.72400687    -0.12200
C2367       C  0.09279283  0.35381294  0.75439137     0.01900
C2368       C  0.10952654  0.37240968  0.77228843    -0.00500
C2369       C  0.12280115  0.39673788  0.75945799    -0.12200
C2370       C  0.12370085  0.39964940  0.72891786     0.01800
H2371       H  0.08476195  0.33955460  0.71052894     0.14700
H2372       H  0.13537031  0.41145723  0.77288674     0.14700
C2373       C  0.14011794  0.42323131  0.71620493     0.36400
C2374       C  0.07640383  0.33000810  0.76674066     0.36300
N2375       N  0.15312306  0.44212915  0.70582145    -0.44000
N2376       N  0.06310538  0.31106664  0.77665373    -0.44000
C2377       C  0.32972909  0.12697498  0.96324338    -0.00400
C2378       C  0.35381580  0.11499118  0.97810920    -0.12200
C2379       C  0.35517562  0.11473480  0.00874431     0.01900
C2380       C  0.33193951  0.12644908  0.02522464    -0.00500
C2381       C  0.30883452  0.13996960  0.01024831    -0.12200
C2382       C  0.30760628  0.14057749  0.97984664     0.01800
H2383       H  0.37122483  0.10485152  0.96583075     0.14700
H2384       H  0.29126309  0.15001708  0.02240458     0.14700
C2385       C  0.28334790  0.15568542  0.96651445     0.36400
C2386       C  0.38007974  0.10127038  0.02250283     0.36300
N2387       N  0.26392746  0.16782742  0.95589578    -0.44000
N2388       N  0.40013108  0.09059261  0.03350822    -0.44000
C2389       C  0.33121346  0.96701219  0.87963207    -0.00400
C2390       C  0.34946645  0.98161155  0.85991458    -0.12200
C2391       C  0.34976573  0.01217765  0.85839337     0.01900
C2392       C  0.33129537  0.02871791  0.87674412    -0.00500
C2393       C  0.31417892  0.01397746  0.89734237    -0.12200
C2394       C  0.31427297  0.98363856  0.89920876     0.01800
H2395       H  0.36276199  0.96913145  0.84497219     0.14700
H2396       H  0.30072287  0.02625407  0.91232200     0.14700
C2397       C  0.29740629  0.97019007  0.92213796     0.36400
C2398       C  0.36830236  0.02577885  0.83696253     0.36300
N2399       N  0.28406644  0.95944686  0.94062585    -0.44000
N2400       N  0.38326386  0.03660484  0.81981666    -0.44000
C2401       C  0.24744442  0.20375215  0.87652638    -0.00400
C2402       C  0.21938319  0.19694363  0.88684168    -0.12200
C2403       C  0.19691758  0.21776244  0.88703396     0.01900
C2404       C  0.20224763  0.24632822  0.87672206    -0.00500
C2405       C  0.23098470  0.25376845  0.86923584    -0.12200
C2406       C  0.25334824  0.23309404  0.86893523     0.01800
H2407       H  0.21440891  0.17483416  0.89335362     0.14700
H2408       H  0.23592316  0.27574551  0.86220298     0.14700
C2409       C  0.28163367  0.24284500  0.85921111     0.36400
C2410       C  0.16847275  0.20855950  0.89670925     0.36300
N2411       N  0.30402617  0.25094611  0.85099010    -0.44000
N2412       N  0.14576398  0.20107945  0.90466407    -0.44000
C2413       C  0.37608926  0.21417239  0.86710504    -0.00400
C2414       C  0.39446504  0.22819945  0.84721111    -0.12200
C2415       C  0.39603001  0.25859986  0.84625590     0.01900
C2416       C  0.37828376  0.27553248  0.86479985    -0.00500
C2417       C  0.36274881  0.26151574  0.88707513    -0.12200
C2418       C  0.36166984  0.23095144  0.88844412     0.01800
H2419       H  0.40571723  0.21550538  0.83082970     0.14700
H2420       H  0.34882185  0.27422756  0.90123460     0.14700
C2421       C  0.34242089  0.21740420  0.90930348     0.36400
C2422       C  0.41393484  0.27209850  0.82419150     0.36300
N2423       N  0.32695128  0.20641515  0.92588134    -0.44000
N2424       N  0.42840778  0.28293764  0.80664071    -0.44000
C2425       C  0.37348001  0.11106656  0.77516999    -0.00400
C2426       C  0.35575758  0.09410517  0.75691447    -0.12200
C2427       C  0.35685050  0.09736298  0.72656820     0.01900
C2428       C  0.37631868  0.11749430  0.71411624    -0.00500
C2429       C  0.39741776  0.13048145  0.73209812    -0.12200
C2430       C  0.39632487  0.12713369  0.76252635     0.01800
H2431       H  0.33826025  0.08142071  0.76645178     0.14700
H2432       H  0.41261021  0.14591321  0.72270570     0.14700
C2433       C  0.41626620  0.14350837  0.78037082     0.36400
C2434       C  0.33479464  0.08332844  0.70918701     0.36300
N2435       N  0.43234225  0.15648044  0.79473222    -0.44000
N2436       N  0.31694204  0.07209191  0.69547142    -0.44000
C2437       C  0.11467007  0.02906854  0.66615319    -0.00400
C2438       C  0.13442022  0.01426369  0.64799663    -0.12200
C2439       C  0.13559737  0.98362114  0.64749398     0.01900
C2440       C  0.11675154  0.96710302  0.66545251    -0.00500
C2441       C  0.09650015  0.98193849  0.68283024    -0.12200
C2442       C  0.09506630  0.01233135  0.68314093     0.01800
H2443       H  0.14958335  0.02662826  0.63479285     0.14700
H2444       H  0.08140942  0.96964569  0.69621444     0.14700
C2445       C  0.07251421  0.02558133  0.70058855     0.36400
C2446       C  0.15729358  0.96979066  0.62948680     0.36300
N2447       N  0.05437623  0.03611873  0.71451850    -0.44000
N2448       N  0.17470375  0.95868592  0.61508146    -0.44000
C2449       C  0.12482396  0.27784513  0.61404240    -0.00400
C2450       C  0.10017886  0.26442148  0.62622887    -0.12200
C2451       C  0.09817931  0.23379731  0.62775943     0.01900
C2452       C  0.12154246  0.21631205  0.61793951    -0.00500
C2453       C  0.14422850  0.22974762  0.60250643    -0.12200
C2454       C  0.14560737  0.26012656  0.59991237     0.01800
H2455       H  0.08394707  0.27766671  0.63705694     0.14700
H2456       H  0.16217776  0.21664343  0.59453372     0.14700
C2457       C  0.16980338  0.27289189  0.58441825     0.36400
C2458       C  0.07370823  0.22087351  0.64265222     0.36300
N2459       N  0.18891244  0.28320148  0.57164670    -0.44000
N2460       N  0.05412513  0.21039511  0.65454565    -0.44000
C2461       C  0.21561969  0.11757734  0.62643507    -0.00400
C2462       C  0.22778225  0.13496848  0.60447629    -0.12200
C2463       C  0.25819704  0.13711465  0.60145953     0.01900
C2464       C  0.27675189  0.12145029  0.62046126    -0.00500
C2465       C  0.26442571  0.10111101  0.63958022    -0.12200
C2466       C  0.23410041  0.09902116  0.64265063     0.01800
H2467       H  0.21379829  0.14952180  0.59213368     0.14700
H2468       H  0.27843665  0.08905668  0.65429063     0.14700
C2469       C  0.22244885  0.07985752  0.66472104     0.36400
C2470       C  0.26982364  0.15856856  0.58162113     0.36300
N2471       N  0.21306026  0.06448357  0.68234637    -0.44000
N2472       N  0.27908829  0.17593064  0.56588891    -0.44000
C2473       C  0.10396813  0.24294882  0.79662049    -0.00400
C2474       C  0.10580961  0.25145106  0.76739513    -0.12200
C2475       C  0.10557075  0.23098540  0.74513230     0.01900
C2476       C  0.10385488  0.20102750  0.75200051    -0.00500
C2477       C  0.09847975  0.19284842  0.78109309    -0.12200
C2478       C  0.09859993  0.21358374  0.80342874     0.01800
H2479       H  0.10961980  0.27410618  0.76202969     0.14700
H2480       H  0.09671711  0.17003959  0.78680733     0.14700
C2481       C  0.09634783  0.20382822  0.83322269     0.36400
C2482       C  0.10914589  0.24163000  0.71578700     0.36300
N2483       N  0.09452816  0.19605300  0.85712944    -0.44000
N2484       N  0.11238316  0.25081209  0.69256309    -0.44000
C2485       C  0.23922095  0.10848071  0.79655512    -0.00400
C2486       C  0.21114386  0.09992875  0.80543126    -0.12200
C2487       C  0.18768892  0.10011289  0.78557847     0.01900
C2488       C  0.19254970  0.10838884  0.75635287    -0.00500
C2489       C  0.22114513  0.11362227  0.74705406    -0.12200
C2490       C  0.24424427  0.11415316  0.76670716     0.01800
H2491       H  0.20700865  0.09556949  0.82826794     0.14700
H2492       H  0.22516930  0.11950112  0.72449940     0.14700
C2493       C  0.27241811  0.12288472  0.75574392     0.36400
C2494       C  0.15867396  0.09454043  0.79627338     0.36300
N2495       N  0.29465383  0.13049972  0.74668297    -0.44000
N2496       N  0.13541196  0.09010160  0.80490030    -0.44000
C2497       C  0.46417861  0.16869775  0.62109323    -0.00400
C2498       C  0.47875878  0.19547012  0.62358316    -0.12200
C2499       C  0.50912695  0.19718675  0.62464259     0.01900
C2500       C  0.52620956  0.17161932  0.62295263    -0.00500
C2501       C  0.51176780  0.14465700  0.62171365    -0.12200
C2502       C  0.48113570  0.14295786  0.62084514     0.01800
H2503       H  0.46636510  0.21551598  0.62482388     0.14700
H2504       H  0.52444525  0.12478064  0.62076028     0.14700
C2505       C  0.46797288  0.11456283  0.61904885     0.36400
C2506       C  0.52184528  0.22566899  0.62823532     0.36300
N2507       N  0.45748923  0.09175158  0.61770623    -0.44000
N2508       N  0.53180242  0.24856780  0.63113689    -0.44000
C2509       C  0.62476113  0.16566203  0.53308848    -0.00400
C2510       C  0.60484391  0.14831782  0.51781490    -0.12200
C2511       C  0.60422399  0.14846793  0.48725598     0.01900
C2512       C  0.62386070  0.16623964  0.47156904    -0.00500
C2513       C  0.64500737  0.18201195  0.48693267    -0.12200
C2514       C  0.64580163  0.18165444  0.51734536     0.01800
H2515       H  0.58866404  0.13592962  0.52974073     0.14700
H2516       H  0.66074257  0.19506705  0.47510598     0.14700
C2517       C  0.66854918  0.19777589  0.53189475     0.36400
C2518       C  0.58187424  0.13191257  0.47271745     0.36300
N2519       N  0.68685214  0.21052668  0.54355906    -0.44000
N2520       N  0.56393953  0.11865995  0.46106067    -0.44000
C2521       C  0.83145939  0.46344730  0.62152571    -0.00400
C2522       C  0.80629052  0.47810006  0.63077755    -0.12200
C2523       C  0.80511728  0.50843272  0.63196984     0.01900
C2524       C  0.82938805  0.52526468  0.62313787    -0.00500
C2525       C  0.85499836  0.51068044  0.61468564    -0.12200
C2526       C  0.85625004  0.48008173  0.61387239     0.01800
H2527       H  0.78733974  0.46571744  0.63750535     0.14700
H2528       H  0.87383201  0.52319005  0.60792211     0.14700
C2529       C  0.88277038  0.46644979  0.60393501     0.36400
C2530       C  0.77887241  0.52149963  0.64338695     0.36300
N2531       N  0.90403286  0.45549853  0.59599442    -0.44000
N2532       N  0.75782451  0.53176511  0.65268177    -0.44000
C2533       C  0.83315611  0.36665992  0.53067572    -0.00400
C2534       C  0.85319752  0.38462904  0.51609917    -0.12200
C2535       C  0.85400771  0.38595019  0.48553541     0.01900
C2536       C  0.83463625  0.36885469  0.46892898    -0.00500
C2537       C  0.81575380  0.34970171  0.48355012    -0.12200
C2538       C  0.81498451  0.34832943  0.51403286     0.01800
H2539       H  0.86728031  0.39879389  0.52861399     0.14700
H2540       H  0.80116585  0.33601208  0.47106511     0.14700
C2541       C  0.79567601  0.32758175  0.52766513     0.36400
C2542       C  0.87329067  0.40665666  0.47189974     0.36300
N2543       N  0.78034250  0.31083280  0.53856610    -0.44000
N2544       N  0.88863995  0.42334384  0.46094060    -0.44000
C2545       C  0.74944407  0.28936063  0.61369840    -0.00400
C2546       C  0.72220624  0.29708301  0.60186810    -0.12200
C2547       C  0.69923946  0.27705465  0.60058463     0.01900
C2548       C  0.70330313  0.24844437  0.61140583    -0.00500
C2549       C  0.73165799  0.23976399  0.61925488    -0.12200
C2550       C  0.75455216  0.25974029  0.62059307     0.01800
H2551       H  0.71805526  0.31941005  0.59545808     0.14700
H2552       H  0.73569050  0.21758456  0.62628103     0.14700
C2553       C  0.78252898  0.24914506  0.63049614     0.36400
C2554       C  0.67138410  0.28742258  0.59018093     0.36300
N2555       N  0.80477370  0.24043985  0.63863838    -0.44000
N2556       N  0.64913234  0.29590701  0.58181713    -0.44000
C2557       C  0.62637880  0.46828719  0.83317176    -0.00400
C2558       C  0.61092417  0.48251316  0.85540715    -0.12200
C2559       C  0.60964024  0.51302761  0.85647072     0.01900
C2560       C  0.62383037  0.52969421  0.83485223    -0.00500
C2561       C  0.64077660  0.51547717  0.81390067    -0.12200
C2562       C  0.64248584  0.48522425  0.81306481     0.01800
H2563       H  0.59863957  0.46984341  0.87108842     0.14700
H2564       H  0.65253834  0.52814008  0.79778232     0.14700
C2565       C  0.66104012  0.47226097  0.79123693     0.36400
C2566       C  0.59216927  0.52657113  0.87875281     0.36300
N2567       N  0.67592856  0.46194408  0.77376007    -0.44000
N2568       N  0.57821026  0.53746575  0.89663280    -0.44000
C2569       C  0.52792460  0.38111604  0.83139261    -0.00400
C2570       C  0.51340800  0.35904799  0.84695517    -0.12200
C2571       C  0.48274054  0.35719877  0.84690873     0.01900
C2572       C  0.46605847  0.37767239  0.83098249    -0.00500
C2573       C  0.48060515  0.40035701  0.81659000    -0.12200
C2574       C  0.51099318  0.40243343  0.81687117     0.01800
H2575       H  0.52603728  0.34257492  0.85827594     0.14700
H2576       H  0.46807871  0.41672813  0.80497633     0.14700
C2577       C  0.52409967  0.42715579  0.80250897     0.36400
C2578       C  0.46911231  0.33325436  0.86198944     0.36300
N2579       N  0.53458266  0.44699553  0.79107578    -0.44000
N2580       N  0.45821671  0.31403403  0.87407973    -0.44000
C2581       C  0.61076510  0.31588062  0.72748143    -0.00400
C2582       C  0.63592300  0.31166247  0.71089263    -0.12200
C2583       C  0.63779333  0.28916054  0.69107854     0.01900
C2584       C  0.61347254  0.27102800  0.68626746    -0.00500
C2585       C  0.58680155  0.27774405  0.69983884    -0.12200
C2586       C  0.58535269  0.30010006  0.72071591     0.01800
H2587       H  0.65528050  0.32446799  0.71539564     0.14700
H2588       H  0.56787014  0.26427014  0.69582132     0.14700
C2589       C  0.55846047  0.30517010  0.73610502     0.36400
C2590       C  0.66597737  0.28394720  0.67813198     0.36300
N2591       N  0.53684535  0.30946741  0.74832274    -0.44000
N2592       N  0.68909448  0.28013322  0.66890184    -0.44000
C2593       C  0.74430940  0.38486171  0.69999720    -0.00400
C2594       C  0.71633470  0.39481786  0.69247275    -0.12200
C2595       C  0.69408351  0.39658924  0.71351488     0.01900
C2596       C  0.69990173  0.38866588  0.74286729    -0.00500
C2597       C  0.72880038  0.38226552  0.75068234    -0.12200
C2598       C  0.75068072  0.37985935  0.72976609     0.01800
H2599       H  0.71121389  0.39909419  0.66980618     0.14700
H2600       H  0.73409419  0.37704310  0.77312669     0.14700
C2601       C  0.77896134  0.37008193  0.73958346     0.36400
C2602       C  0.66526671  0.40469875  0.70380565     0.36300
N2603       N  0.80122287  0.36151131  0.74777322    -0.44000
N2604       N  0.64218658  0.41124579  0.69596860    -0.44000
C2605       C  0.96432953  0.12249684  0.66462329    -0.00400
C2606       C  0.97991201  0.10300410  0.64709675    -0.12200
C2607       C  0.01054014  0.10316737  0.64684919     0.01900
C2608       C  0.02594037  0.12338221  0.66411066    -0.00500
C2609       C  0.01020630  0.14377178  0.68044944    -0.12200
C2610       C  0.97971874  0.14356514  0.68074401     0.01800
H2611       H  0.96820735  0.08661377  0.63487700     0.14700
H2612       H  0.02181965  0.15959021  0.69350154     0.14700
C2613       C  0.96466501  0.16526763  0.69773725     0.36400
C2614       C  0.02558742  0.08082724  0.63076134     0.36300
N2615       N  0.95267235  0.18279009  0.71121420    -0.44000
N2616       N  0.03769504  0.06281525  0.61805394    -0.44000
C2617       C  0.86826979  0.02716286  0.66679577    -0.00400
C2618       C  0.88020360  0.01260049  0.64268689    -0.12200
C2619       C  0.88137727  0.98196970  0.64172800     0.01900
C2620       C  0.87013372  0.96528672  0.66513443    -0.00500
C2621       C  0.85655887  0.98008164  0.68822575    -0.12200
C2622       C  0.85560388  0.01043293  0.68930552     0.01800
H2623       H  0.88994672  0.02515687  0.62522054     0.14700
H2624       H  0.84696875  0.96784918  0.70601896     0.14700
C2625       C  0.84135097  0.02377822  0.71393215     0.36400
C2626       C  0.89575701  0.96847880  0.61734163     0.36300
N2627       N  0.82994193  0.03431436  0.73372664    -0.44000
N2628       N  0.90735914  0.95772384  0.59778031    -0.44000
C2629       C  0.77363603  0.12343525  0.63160088    -0.00400
C2630       C  0.75730644  0.10545929  0.65022737    -0.12200
C2631       C  0.72676760  0.10659971  0.65047135     0.01900
C2632       C  0.71191662  0.12534541  0.63119409    -0.00500
C2633       C  0.72806012  0.14099012  0.61044267    -0.12200
C2634       C  0.75871395  0.14053303  0.61079772     0.01800
H2635       H  0.76849647  0.09268487  0.66671732     0.14700
H2636       H  0.71682884  0.15594160  0.59593694     0.14700
C2637       C  0.77408950  0.16004696  0.59164666     0.36400
C2638       C  0.71120785  0.09016015  0.67228138     0.36300
N2639       N  0.78584239  0.17590239  0.57601866    -0.44000
N2640       N  0.69875992  0.07697410  0.68977433    -0.44000
C2641       C  0.88038555  0.21629056  0.63045597    -0.00400
C2642       C  0.89609971  0.23240475  0.65098871    -0.12200
C2643       C  0.89660918  0.26272354  0.64980591     0.01900
C2644       C  0.88156876  0.27756578  0.62747896    -0.00500
C2645       C  0.86980140  0.26127863  0.60439348    -0.12200
C2646       C  0.86920143  0.23066849  0.60573939     0.01800
H2647       H  0.90517684  0.22142952  0.66990777     0.14700
H2648       H  0.85813118  0.27237605  0.58706774     0.14700
C2649       C  0.85477317  0.21468464  0.58301887     0.36400
C2650       C  0.90972825  0.27797657  0.67378026     0.36300
N2651       N  0.84365826  0.20180243  0.56451855    -0.44000
N2652       N  0.92044371  0.28946052  0.69337739    -0.44000
C2653       C  0.66492585  0.12798721  0.96916684    -0.00400
C2654       C  0.69020178  0.13750675  0.98345025    -0.12200
C2655       C  0.69195503  0.13825345  0.01373680     0.01900
C2656       C  0.66810388  0.12893034  0.03086984    -0.00500
C2657       C  0.64185481  0.12184549  0.01677918    -0.12200
C2658       C  0.64000194  0.12147896  0.98616304     0.01800
H2659       H  0.70911450  0.14397337  0.97084852     0.14700
H2660       H  0.62317096  0.11526358  0.02962554     0.14700
C2661       C  0.61270211  0.11318161  0.97301741     0.36400
C2662       C  0.71876416  0.14870806  0.02642665     0.36300
N2663       N  0.59069936  0.10672059  0.96256674    -0.44000
N2664       N  0.74041201  0.15710648  0.03617200    -0.44000
C2665       C  0.66581452  0.02937131  0.87530632    -0.00400
C2666       C  0.64200212  0.01392273  0.88684207    -0.12200
C2667       C  0.64154798  0.98328998  0.88684585     0.01900
C2668       C  0.66525494  0.96752394  0.87504552    -0.00500
C2669       C  0.68826153  0.98308145  0.86230839    -0.12200
C2670       C  0.68869165  0.01345449  0.86213090     0.01800
H2671       H  0.62420974  0.02574632  0.89686693     0.14700
H2672       H  0.70626598  0.97138719  0.85246777     0.14700
C2673       C  0.71282834  0.02755182  0.84768758     0.36400
C2674       C  0.61731605  0.96869748  0.90051813     0.36300
N2675       N  0.73223290  0.03861321  0.83603525    -0.44000
N2676       N  0.59791466  0.95695394  0.91149016    -0.44000
C2677       C  0.61428609  0.12100079  0.78270525    -0.00400
C2678       C  0.59620964  0.14338333  0.77250503    -0.12200
C2679       C  0.59378107  0.14902928  0.74263863     0.01900
C2680       C  0.60955263  0.13194201  0.72254327    -0.00500
C2681       C  0.62344353  0.10658546  0.73252909    -0.12200
C2682       C  0.62592156  0.10104180  0.76255190     0.01800
H2683       H  0.58705461  0.15873811  0.78787766     0.14700
H2684       H  0.63531377  0.09308060  0.71728496     0.14700
C2685       C  0.64353389  0.07686384  0.77231976     0.36400
C2686       C  0.57745619  0.17428672  0.73331943     0.36300
N2687       N  0.65765380  0.05750810  0.78019358    -0.44000
N2688       N  0.56440751  0.19454346  0.72589154    -0.44000
C2689       C  0.61933176  0.21724087  0.87361898    -0.00400
C2690       C  0.59997506  0.22822648  0.85268692    -0.12200
C2691       C  0.59731473  0.25825731  0.84815110     0.01900
C2692       C  0.61411486  0.27781454  0.86487016    -0.00500
C2693       C  0.63010079  0.26694610  0.88858749    -0.12200
C2694       C  0.63306543  0.23681102  0.89286915     0.01800
H2695       H  0.58947000  0.21338019  0.83769578     0.14700
H2696       H  0.64302079  0.28172381  0.90159730     0.14700
C2697       C  0.65320054  0.22643313  0.91475886     0.36400
C2698       C  0.57932596  0.26843334  0.82438325     0.36300
N2699       N  0.66945450  0.21808028  0.93216936    -0.44000
N2700       N  0.56491873  0.27658995  0.80534240    -0.44000
C2701       C  0.75229624  0.10459815  0.79932757    -0.00400
C2702       C  0.78070980  0.09686832  0.80803374    -0.12200
C2703       C  0.80365271  0.09627783  0.78779772     0.01900
C2704       C  0.79810668  0.10353244  0.75841957    -0.00500
C2705       C  0.76915612  0.10684113  0.74920369    -0.12200
C2706       C  0.74633607  0.10745323  0.76919320     0.01800
H2707       H  0.78556181  0.09380286  0.83094637     0.14700
H2708       H  0.76454720  0.11123664  0.72642084     0.14700
C2709       C  0.71746087  0.11329807  0.75805027     0.36400
C2710       C  0.83283313  0.09080176  0.79821337     0.36300
N2711       N  0.69456123  0.11842971  0.74879851    -0.44000
N2712       N  0.85619736  0.08620567  0.80655934    -0.44000
C2713       C  0.87087668  0.32780472  0.96805676    -0.00400
C2714       C  0.87528326  0.35444988  0.98247820    -0.12200
C2715       C  0.87667386  0.35592408  0.01313301     0.01900
C2716       C  0.87434159  0.33025740  0.03002597    -0.00500
C2717       C  0.86813056  0.30411738  0.01568197    -0.12200
C2718       C  0.86591404  0.30267204  0.98538916     0.01800
H2719       H  0.87846123  0.37411324  0.96982051     0.14700
H2720       H  0.86492728  0.28440350  0.02830805     0.14700
C2721       C  0.85818794  0.27484732  0.97311042     0.36400
C2722       C  0.88141562  0.38384708  0.02648504     0.36300
N2723       N  0.85192753  0.25250956  0.96347252    -0.44000
N2724       N  0.88497577  0.40629842  0.03717057    -0.44000
C2725       C  0.96711523  0.33341942  0.87757566    -0.00400
C2726       C  0.98305291  0.31902497  0.89937511    -0.12200
C2727       C  0.01352752  0.31928573  0.89956655     0.01900
C2728       C  0.02899614  0.33354354  0.87707429    -0.00500
C2729       C  0.01310066  0.34907006  0.85586927    -0.12200
C2730       C  0.98239717  0.34920210  0.85601268     0.01800
H2731       H  0.97156279  0.30747717  0.91649162     0.14700
H2732       H  0.02463867  0.36031212  0.83860191     0.14700
C2733       C  0.96718747  0.36438096  0.83300584     0.36400
C2734       C  0.02832293  0.30548787  0.92372496     0.36300
N2735       N  0.95503061  0.37661592  0.81458094    -0.44000
N2736       N  0.04019636  0.29463292  0.94317145    -0.44000
C2737       C  0.79767065  0.24181705  0.88553590    -0.00400
C2738       C  0.76898574  0.24967737  0.87819348    -0.12200
C2739       C  0.74657733  0.22928319  0.87809060     0.01900
C2740       C  0.75243957  0.20008012  0.88589963    -0.00500
C2741       C  0.78010233  0.19308025  0.89713379    -0.12200
C2742       C  0.80273580  0.21366475  0.89705464     0.01800
H2743       H  0.76428187  0.27154108  0.87060719     0.14700
H2744       H  0.78473264  0.17094743  0.90389341     0.14700
C2745       C  0.83115234  0.20457084  0.90705623     0.36400
C2746       C  0.71826841  0.23880051  0.86799551     0.36300
N2747       N  0.85386018  0.19722140  0.91526209    -0.44000
N2748       N  0.69583734  0.24659553  0.85945727    -0.44000
C2749       C  0.89481013  0.23924841  0.79998386    -0.00400
C2750       C  0.90085951  0.21059458  0.80891625    -0.12200
C2751       C  0.90061950  0.18771108  0.78868003     0.01900
C2752       C  0.89406417  0.19363867  0.75918346    -0.00500
C2753       C  0.89253331  0.22269371  0.74991283    -0.12200
C2754       C  0.89277274  0.24538296  0.76991287     0.01800
H2755       H  0.90310273  0.20568857  0.83191789     0.14700
H2756       H  0.88874639  0.22761584  0.72709032     0.14700
C2757       C  0.88854124  0.27458087  0.75907832     0.36400
C2758       C  0.90466075  0.15837901  0.79913339     0.36300
N2759       N  0.88480030  0.29788765  0.75033205    -0.44000
N2760       N  0.90819569  0.13489224  0.80751135    -0.44000
C2761       C  0.87937459  0.37629855  0.77946083    -0.00400
C2762       C  0.90137265  0.36414937  0.76191842    -0.12200
C2763       C  0.90076224  0.36770433  0.73145775     0.01900
C2764       C  0.87681894  0.38168370  0.71833167    -0.00500
C2765       C  0.85817847  0.39811925  0.73607515    -0.12200
C2766       C  0.85959274  0.39585498  0.76648917     0.01800
H2767       H  0.91751896  0.34990058  0.77167376     0.14700
H2768       H  0.84019151  0.40989643  0.72617740     0.14700
C2769       C  0.83798899  0.41079629  0.78353525     0.36400
C2770       C  0.92399544  0.35594056  0.71400172     0.36300
N2771       N  0.82056139  0.42309631  0.79683384    -0.44000
N2772       N  0.94315498  0.34755713  0.69997539    -0.44000
C2773       C  0.71507327  0.36648543  0.87363227    -0.00400
C2774       C  0.73124795  0.39114111  0.86542163    -0.12200
C2775       C  0.76198865  0.39070189  0.86612528     0.01900
C2776       C  0.77675131  0.36516163  0.87470627    -0.00500
C2777       C  0.76045651  0.34209393  0.88632420    -0.12200
C2778       C  0.72996687  0.34266607  0.88609592     0.01800
H2779       H  0.72005335  0.40976217  0.85612757     0.14700
H2780       H  0.77160868  0.32256027  0.89360198     0.14700
C2781       C  0.71438879  0.31779267  0.89726754     0.36400
C2782       C  0.77774580  0.41618230  0.85700057     0.36300
N2783       N  0.70201403  0.29796111  0.90659088    -0.44000
N2784       N  0.79001848  0.43712112  0.85038992    -0.44000
loop_ 
_geom_bond_atom_site_label_1 
_geom_bond_atom_site_label_2 
_geom_bond_distance 
_geom_bond_site_symmetry_2 
_ccdc_geom_bond_type 
Fe1          O17   2.046       .  S
Fe1           O7   2.056       .  S
Fe1          O14   2.045       .  S
Fe1           O6   2.044       .  S
Fe1          O12   1.961       .  S
Fe2           O5   2.045       .  S
Fe2           O9   2.086       .  S
Fe2          O13   2.075       .  S
Fe2          O18   2.068       .  S
Fe2          O12   1.978       .  S
Fe3          O21   2.099       .  S
Fe3           O8   2.086       .  S
Fe3          O15   2.097       .  S
Fe3           O4   2.114       .  S
Fe3          O12   1.986       .  S
O4           C11   1.276       .  A
O5           C19   1.265       .  A
O6           C11   1.264       .  A
O7           C10   1.266       .  A
O8           C20   1.275       .  A
O9           C22   1.272       .  A
C10          O15   1.272       .  A
C10        C2776   1.484       .  S
C11        C2761   1.484       .  S
O13          C16   1.267       .  A
O14          C16   1.264       .  A
C16        C2749   1.482       .  S
O17          C22   1.269       .  A
O18          C20   1.273       .  A
C19          O21   1.274       .  A
C19        C2713   1.502       .  S
C20        C2725   1.486       .  S
C22        C2737   1.490       .  S
Fe23         O39   2.041       .  S
Fe23         O29   2.036       .  S
Fe23         O36   2.041       .  S
Fe23         O28   2.039       .  S
Fe23         O34   1.962       .  S
Fe24         O27   2.057       .  S
Fe24         O31   2.082       .  S
Fe24         O35   2.080       .  S
Fe24         O40   2.055       .  S
Fe24         O34   1.980       .  S
Fe25         O43   2.095       .  S
Fe25         O30   2.078       .  S
Fe25         O37   2.091       .  S
Fe25         O26   2.103       .  S
Fe25         O34   1.996       .  S
O26          C33   1.275       .  A
O27          C41   1.270       .  A
O28          C33   1.264       .  A
O29          C32   1.262       .  A
O30          C42   1.269       .  A
O31          C44   1.271       .  A
C32          O37   1.270       .  A
C32        C2677   1.472       .  S
C33        C2689   1.476       .  S
O35          C38   1.269       .  A
O36          C38   1.264       .  A
C38        C2740   1.486       .  S
O39          C44   1.264       .  A
O40          C42   1.269       .  A
C41          O43   1.276       .  A
C41        C2665   1.493       .  S
C42        C2653   1.491       .  S
C44        C2701   1.487       .  S
Fe45         O61   2.036       .  S
Fe45         O51   2.035       .  S
Fe45         O58   2.045       .  S
Fe45         O50   2.036       .  S
Fe45         O56   1.964       .  S
Fe46         O49   2.056       .  S
Fe46         O53   2.081       .  S
Fe46         O57   2.079       .  S
Fe46         O62   2.062       .  S
Fe46         O56   1.984       .  S
Fe47         O65   2.087       .  S
Fe47         O52   2.089       .  S
Fe47         O59   2.102       .  S
Fe47         O48   2.108       .  S
Fe47         O56   1.996       .  S
O48          C55   1.274       .  A
O49          C63   1.269       .  A
O50          C55   1.261       .  A
O51          C54   1.264       .  A
O52          C64   1.273       .  A
O53          C66   1.267       .  A
C54          O59   1.273       .  A
C54        C2641   1.479       .  S
C55        C2629   1.481       .  S
O57          C60   1.271       .  A
O58          C60   1.268       .  A
C60        C2704   1.480       .  S
O61          C66   1.263       .  A
O62          C64   1.269       .  A
C63          O65   1.273       .  A
C63        C2605   1.478       .  S
C64        C2617   1.492       .  S
C66        C2752   1.483       .  S
Fe67         O83   2.051       .  S
Fe67         O73   2.063       .  S
Fe67         O80   2.042       .  S
Fe67         O72   2.036       .  S
Fe67         O78   1.932       .  S
Fe68         O71   2.040       .  S
Fe68         O75   2.103       .  S
Fe68         O79   2.069       .  S
Fe68         O84   2.072       .  S
Fe68         O78   1.950       .  S
Fe69         O87   2.098       .  S
Fe69         O74   2.083       .  S
Fe69         O81   2.094       .  S
Fe69         O70   2.127       .  S
Fe69         O78   1.956       .  S
O70          C77   1.282       .  A
O71          C85   1.267       .  A
O72          C77   1.268       .  A
O73          C76   1.264       .  A
O74          C86   1.275       .  A
O75          C88   1.277       .  A
C76          O81   1.270       .  A
C76        C2773   1.484       .  S
C77        C2692   1.483       .  S
O79          C82   1.264       .  A
O80          C82   1.265       .  A
C82        C2581   1.470       .  S
O83          C88   1.273       .  A
O84          C86   1.274       .  A
C85          O87   1.276       .  A
C85        C2557   1.486       .  S
C86        C2569   1.492       .  S
C88        C2596   1.496       .  S
Fe89        O105   2.051       .  S
Fe89         O95   2.050       .  S
Fe89        O102   2.045       .  S
Fe89         O94   2.037       .  S
Fe89        O100   1.956       .  S
Fe90         O93   2.067       .  S
Fe90         O97   2.087       .  S
Fe90        O101   2.088       .  S
Fe90        O106   2.074       .  S
Fe90        O100   1.966       .  S
Fe91        O109   2.083       .  S
Fe91         O96   2.078       .  S
Fe91        O103   2.094       .  S
Fe91         O92   2.116       .  S
Fe91        O100   1.979       .  S
O92          C99   1.277       .  A
O93         C107   1.270       .  A
O94          C99   1.266       .  A
O95          C98   1.263       .  A
O96         C108   1.273       .  A
O97         C110   1.275       .  A
C98         O103   1.270       .  A
C98        C2644   1.480       .  S
C99        C2764   1.483       .  S
O101        C104   1.270       .  A
O102        C104   1.263       .  A
C104       C2593   1.489       .  S
O105        C110   1.268       .  A
O106        C108   1.274       .  A
C107        O109   1.272       .  A
C107       C2533   1.488       .  S
C108       C2521   1.492       .  S
C110       C2545   1.493       .  S
Fe111       O127   2.055       .  S
Fe111       O117   2.036       .  S
Fe111       O124   2.051       .  S
Fe111       O116   2.068       .  S
Fe111       O122   1.935       .  S
Fe112       O115   2.081       .  S
Fe112       O119   2.068       .  S
Fe112       O123   2.097       .  S
Fe112       O128   2.042       .  S
Fe112       O122   1.941       .  S
Fe113       O131   2.075       .  S
Fe113       O118   2.090       .  S
Fe113       O125   2.123       .  S
Fe113       O114   2.086       .  S
Fe113       O122   1.951       .  S
O114        C121   1.268       .  A
O115        C129   1.276       .  A
O116        C121   1.264       .  A
O117        C120   1.269       .  A
O118        C130   1.273       .  A
O119        C132   1.265       .  A
C120        O125   1.281       .  A
C120       C2680   1.481       .  S
C121       C2632   1.480       .  S
O123        C126   1.278       .  A
O124        C126   1.273       .  A
C126       C2548   1.494       .  S
O127        C132   1.266       .  A
O128        C130   1.265       .  A
C129        O131   1.275       .  A
C129       C2500   1.494       .  S
C130       C2509   1.479       .  S
C132       C2584   1.474       .  S
Fe133       O149   2.049       .  S
Fe133       O139   2.036       .  S
Fe133       O146   2.044       .  S
Fe133       O138   2.057       .  S
Fe133       O144   1.951       .  S
Fe134       O137   2.070       .  S
Fe134       O141   2.079       .  S
Fe134       O145   2.086       .  S
Fe134       O150   2.058       .  S
Fe134       O144   1.967       .  S
Fe135       O153   2.092       .  S
Fe135       O140   2.089       .  S
Fe135       O147   2.113       .  S
Fe135       O136   2.107       .  S
Fe135       O144   1.972       .  S
O136        C143   1.274       .  A
O137        C151   1.271       .  A
O138        C143   1.264       .  A
O139        C142   1.266       .  A
O140        C152   1.275       .  A
O141        C154   1.269       .  A
C142        O147   1.277       .  A
C142       C2461   1.479       .  S
C143       C2452   1.489       .  S
O145        C148   1.273       .  A
O146        C148   1.267       .  A
C148       C2476   1.486       .  S
O149        C154   1.266       .  A
O150        C152   1.270       .  A
C151        O153   1.275       .  A
C151       C2437   1.499       .  S
C152       C2608   1.482       .  S
C154       C2488   1.480       .  S
Fe155       O171   2.042       .  S
Fe155       O161   2.069       .  S
Fe155       O168   2.055       .  S
Fe155       O160   2.027       .  S
Fe155       O166   1.942       .  S
Fe156       O159   2.054       .  S
Fe156       O163   2.109       .  S
Fe156       O167   2.077       .  S
Fe156       O172   2.089       .  S
Fe156       O166   1.951       .  S
Fe157       O175   2.094       .  S
Fe157       O162   2.070       .  S
Fe157       O169   2.081       .  S
Fe157       O158   2.128       .  S
Fe157       O166   1.962       .  S
O158        C165   1.281       .  A
O159        C173   1.269       .  A
O160        C165   1.265       .  A
O161        C164   1.265       .  A
O162        C174   1.273       .  A
O163        C176   1.280       .  A
C164        O169   1.267       .  A
C164       C2413   1.480       .  S
C165       C2425   1.482       .  S
O167        C170   1.268       .  A
O168        C170   1.265       .  A
C170       C2485   1.483       .  S
O171        C176   1.268       .  A
O172        C174   1.278       .  A
C173        O175   1.275       .  A
C173       C2377   1.496       .  S
C174       C2392   1.493       .  S
C176       C2401   1.498       .  S
Fe177       O193   2.049       .  S
Fe177       O183   2.031       .  S
Fe177       O190   2.049       .  S
Fe177       O182   2.060       .  S
Fe177       O188   1.951       .  S
Fe178       O181   2.078       .  S
Fe178       O185   2.069       .  S
Fe178       O189   2.096       .  S
Fe178       O194   2.058       .  S
Fe178       O188   1.958       .  S
Fe179       O197   2.076       .  S
Fe179       O184   2.104       .  S
Fe179       O191   2.129       .  S
Fe179       O180   2.086       .  S
Fe179       O188   1.967       .  S
O180        C187   1.269       .  A
O181        C195   1.274       .  A
O182        C187   1.265       .  A
O183        C186   1.264       .  A
O184        C196   1.277       .  A
O185        C198   1.268       .  A
C186        O191   1.280       .  A
C186       C2368   1.486       .  S
C187       C2353   1.478       .  S
O189        C192   1.274       .  A
O190        C192   1.269       .  A
C192       C2404   1.497       .  S
O193        C198   1.266       .  A
O194        C196   1.271       .  A
C195        O197   1.272       .  A
C195       C2728   1.490       .  S
C196       C2341   1.498       .  S
C198       C2473   1.473       .  S
Fe199       O215   2.037       .  S
Fe199       O205   2.031       .  S
Fe199       O212   2.046       .  S
Fe199       O204   2.041       .  S
Fe199       O210   1.960       .  S
Fe200       O203   2.068       .  S
Fe200       O207   2.081       .  S
Fe200       O211   2.092       .  S
Fe200       O216   2.058       .  S
Fe200       O210   1.970       .  S
Fe201       O219   2.084       .  S
Fe201       O206   2.100       .  S
Fe201       O213   2.120       .  S
Fe201       O202   2.094       .  S
Fe201       O210   1.980       .  S
O202        C209   1.271       .  A
O203        C217   1.271       .  A
O204        C209   1.261       .  A
O205        C208   1.264       .  A
O206        C218   1.276       .  A
O207        C220   1.270       .  A
C208        O213   1.278       .  A
C208       C2416   1.482       .  S
C209       C2356   1.476       .  S
O211        C214   1.273       .  A
O212        C214   1.267       .  A
C214       C2317   1.491       .  S
O215        C220   1.264       .  A
O216        C218   1.272       .  A
C217        O219   1.273       .  A
C217       C2572   1.490       .  S
C218       C2305   1.501       .  S
C220       C2329   1.476       .  S
Fe221       O237   2.048       .  S
Fe221       O227   2.036       .  S
Fe221       O234   2.034       .  S
Fe221       O226   2.047       .  S
Fe221       O232   1.964       .  S
Fe222       O225   2.055       .  S
Fe222       O229   2.086       .  S
Fe222       O233   2.070       .  S
Fe222       O238   2.063       .  S
Fe222       O232   1.982       .  S
Fe223       O241   2.099       .  S
Fe223       O228   2.082       .  S
Fe223       O235   2.100       .  S
Fe223       O224   2.119       .  S
Fe223       O232   1.994       .  S
O224        C231   1.278       .  A
O225        C239   1.271       .  A
O226        C231   1.266       .  A
O227        C230   1.261       .  A
O228        C240   1.271       .  A
O229        C242   1.271       .  A
C230        O235   1.271       .  A
C230       C2365   1.478       .  S
C231       C2449   1.491       .  S
O233        C236   1.268       .  A
O234        C236   1.265       .  A
C236       C2293   1.477       .  S
O237        C242   1.265       .  A
O238        C240   1.268       .  A
C239        O241   1.277       .  A
C239       C2269   1.495       .  S
C240       C2281   1.490       .  S
C242       C2320   1.490       .  S
Fe243       O259   2.044       .  S
Fe243       O249   2.054       .  S
Fe243       O256   2.049       .  S
Fe243       O248   2.037       .  S
Fe243       O254   1.960       .  S
Fe244       O247   2.053       .  S
Fe244       O251   2.069       .  S
Fe244       O255   2.069       .  S
Fe244       O260   2.057       .  S
Fe244       O254   1.971       .  S
Fe245       O263   2.098       .  S
Fe245       O250   2.085       .  S
Fe245       O257   2.094       .  S
Fe245       O246   2.111       .  S
Fe245       O254   1.981       .  S
O246        C253   1.275       .  A
O247        C261   1.267       .  A
O248        C253   1.263       .  A
O249        C252   1.266       .  A
O250        C262   1.274       .  A
O251        C264   1.270       .  A
C252        O257   1.272       .  A
C252       C2464   1.479       .  S
C253       C2428   1.480       .  S
O255        C258   1.267       .  A
O256        C258   1.265       .  A
C258       C2332   1.480       .  S
O259        C264   1.266       .  A
O260        C262   1.271       .  A
C261        O263   1.275       .  A
C261       C2257   1.495       .  S
C262       C2497   1.497       .  S
C264       C2296   1.483       .  S
Fe265       O281   2.042       .  S
Fe265       O271   2.046       .  S
Fe265       O278   2.038       .  S
Fe265       O270   2.040       .  S
Fe265       O276   1.963       .  S
Fe266       O269   2.050       .  S
Fe266       O273   2.083       .  S
Fe266       O277   2.070       .  S
Fe266       O282   2.057       .  S
Fe266       O276   1.984       .  S
Fe267       O285   2.090       .  S
Fe267       O272   2.067       .  S
Fe267       O279   2.092       .  S
Fe267       O268   2.107       .  S
Fe267       O276   1.993       .  S
O268        C275   1.274       .  A
O269        C283   1.266       .  A
O270        C275   1.262       .  A
O271        C274   1.265       .  A
O272        C284   1.271       .  A
O273        C286   1.272       .  A
C274        O279   1.271       .  A
C274       C2245   1.478       .  S
C275       C2233   1.483       .  S
O277        C280   1.265       .  A
O278        C280   1.263       .  A
C280       C2209   1.476       .  S
O281        C286   1.268       .  A
O282        C284   1.271       .  A
C283        O285   1.273       .  A
C283       C2389   1.488       .  S
C284       C2197   1.477       .  S
C286       C2221   1.484       .  S
Fe287       O303   2.043       .  S
Fe287       O293   2.035       .  S
Fe287       O300   2.048       .  S
Fe287       O292   2.042       .  S
Fe287       O298   1.970       .  S
Fe288       O291   2.060       .  S
Fe288       O295   2.073       .  S
Fe288       O299   2.076       .  S
Fe288       O304   2.062       .  S
Fe288       O298   1.978       .  S
Fe289       O307   2.090       .  S
Fe289       O294   2.088       .  S
Fe289       O301   2.104       .  S
Fe289       O290   2.104       .  S
Fe289       O298   1.993       .  S
O290        C297   1.275       .  A
O291        C305   1.271       .  A
O292        C297   1.264       .  A
O293        C296   1.261       .  A
O294        C306   1.271       .  A
O295        C308   1.269       .  A
C296        O301   1.272       .  A
C296       C2173   1.478       .  S
C297       C2161   1.480       .  S
O299        C302   1.271       .  A
O300        C302   1.266       .  A
C302       C2185   1.483       .  S
O303        C308   1.264       .  A
O304        C306   1.270       .  A
C305        O307   1.276       .  A
C305       C2137   1.492       .  S
C306       C2152   1.504       .  S
C308       C2212   1.480       .  S
Fe309       O325   2.046       .  S
Fe309       O315   2.055       .  S
Fe309       O322   2.047       .  S
Fe309       O314   2.033       .  S
Fe309       O320   1.960       .  S
Fe310       O313   2.060       .  S
Fe310       O317   2.094       .  S
Fe310       O321   2.075       .  S
Fe310       O326   2.077       .  S
Fe310       O320   1.969       .  S
Fe311       O329   2.100       .  S
Fe311       O316   2.085       .  S
Fe311       O323   2.096       .  S
Fe311       O312   2.125       .  S
Fe311       O320   1.978       .  S
O312        C319   1.278       .  A
O313        C327   1.270       .  A
O314        C319   1.264       .  A
O315        C318   1.265       .  A
O316        C328   1.274       .  A
O317        C330   1.276       .  A
C318        O323   1.272       .  A
C318       C2116   1.483       .  S
C319       C2128   1.487       .  S
O321        C324   1.268       .  A
O322        C324   1.264       .  A
C324       C2224   1.483       .  S
O325        C330   1.267       .  A
O326        C328   1.274       .  A
C327        O329   1.275       .  A
C327       C2104   1.494       .  S
C328       C2440   1.495       .  S
C330       C2188   1.492       .  S
Fe331       O347   2.039       .  S
Fe331       O337   2.043       .  S
Fe331       O344   2.049       .  S
Fe331       O336   2.042       .  S
Fe331       O342   1.966       .  S
Fe332       O335   2.063       .  S
Fe332       O339   2.083       .  S
Fe332       O343   2.083       .  S
Fe332       O348   2.067       .  S
Fe332       O342   1.978       .  S
Fe333       O351   2.095       .  S
Fe333       O338   2.084       .  S
Fe333       O345   2.101       .  S
Fe333       O334   2.106       .  S
Fe333       O342   1.995       .  S
O334        C341   1.275       .  A
O335        C349   1.270       .  A
O336        C341   1.263       .  A
O337        C340   1.264       .  A
O338        C350   1.272       .  A
O339        C352   1.270       .  A
C340        O345   1.272       .  A
C340       C2176   1.481       .  S
C341       C2236   1.482       .  S
O343        C346   1.271       .  A
O344        C346   1.268       .  A
C346       C2089   1.490       .  S
O347        C352   1.263       .  A
O348        C350   1.271       .  A
C349        O351   1.275       .  A
C349       C2308   1.498       .  S
C350       C2065   1.496       .  S
C352       C2080   1.486       .  S
Fe353       O369   2.052       .  S
Fe353       O359   2.048       .  S
Fe353       O366   2.043       .  S
Fe353       O358   2.042       .  S
Fe353       O364   1.970       .  S
Fe354       O357   2.059       .  S
Fe354       O361   2.087       .  S
Fe354       O365   2.072       .  S
Fe354       O370   2.068       .  S
Fe354       O364   1.979       .  S
Fe355       O373   2.099       .  S
Fe355       O360   2.083       .  S
Fe355       O367   2.095       .  S
Fe355       O356   2.111       .  S
Fe355       O364   1.994       .  S
O356        C363   1.275       .  A
O357        C371   1.268       .  A
O358        C363   1.263       .  A
O359        C362   1.265       .  A
O360        C372   1.273       .  A
O361        C374   1.273       .  A
C362        O367   1.273       .  A
C362       C2248   1.478       .  S
C363       C2125   1.484       .  S
O365        C368   1.268       .  A
O366        C368   1.264       .  A
C368       C2056   1.482       .  S
O369        C374   1.267       .  A
O370        C372   1.272       .  A
C371        O373   1.274       .  A
C371       C2029   1.500       .  S
C372       C2041   1.491       .  S
C374       C2092   1.492       .  S
Fe375       O391   2.038       .  S
Fe375       O381   2.036       .  S
Fe375       O388   2.038       .  S
Fe375       O380   2.036       .  S
Fe375       O386   1.965       .  S
Fe376       O379   2.059       .  S
Fe376       O383   2.078       .  S
Fe376       O387   2.083       .  S
Fe376       O392   2.060       .  S
Fe376       O386   1.984       .  S
Fe377       O395   2.094       .  S
Fe377       O382   2.086       .  S
Fe377       O389   2.101       .  S
Fe377       O378   2.110       .  S
Fe377       O386   1.994       .  S
O378        C385   1.275       .  A
O379        C393   1.269       .  A
O380        C385   1.263       .  A
O381        C384   1.262       .  A
O382        C394   1.273       .  A
O383        C396   1.269       .  A
C384        O389   1.272       .  A
C384       C2113   1.478       .  S
C385       C2164   1.481       .  S
O387        C390   1.270       .  A
O388        C390   1.265       .  A
C390       C2077   1.483       .  S
O391        C396   1.265       .  A
O392        C394   1.269       .  A
C393        O395   1.274       .  A
C393       C2017   1.488       .  S
C394       C2272   1.491       .  S
C396       C2053   1.482       .  S
Fe397       O413   2.044       .  S
Fe397       O403   2.055       .  S
Fe397       O410   2.048       .  S
Fe397       O402   2.028       .  S
Fe397       O408   1.948       .  S
Fe398       O401   2.053       .  S
Fe398       O405   2.086       .  S
Fe398       O409   2.080       .  S
Fe398       O414   2.068       .  S
Fe398       O408   1.957       .  S
Fe399       O417   2.107       .  S
Fe399       O404   2.091       .  S
Fe399       O411   2.100       .  S
Fe399       O400   2.137       .  S
Fe399       O408   1.963       .  S
O400        C407   1.285       .  A
O401        C415   1.271       .  A
O402        C407   1.267       .  A
O403        C406   1.261       .  A
O404        C416   1.275       .  A
O405        C418   1.275       .  A
C406        O411   1.269       .  A
C406       C1993   1.485       .  S
C407       C1969   1.486       .  S
O409        C412   1.268       .  A
O410        C412   1.266       .  A
C412       C1981   1.486       .  S
O413        C418   1.268       .  A
O414        C416   1.272       .  A
C415        O417   1.278       .  A
C415       C2620   1.499       .  S
C416       C2101   1.501       .  S
C418       C2005   1.488       .  S
Fe419       O435   2.038       .  S
Fe419       O425   2.037       .  S
Fe419       O432   2.049       .  S
Fe419       O424   2.049       .  S
Fe419       O430   1.957       .  S
Fe420       O423   2.064       .  S
Fe420       O427   2.083       .  S
Fe420       O431   2.081       .  S
Fe420       O436   2.056       .  S
Fe420       O430   1.974       .  S
Fe421       O439   2.096       .  S
Fe421       O426   2.088       .  S
Fe421       O433   2.114       .  S
Fe421       O422   2.106       .  S
Fe421       O430   1.985       .  S
O422        C429   1.273       .  A
O423        C437   1.271       .  A
O424        C429   1.263       .  A
O425        C428   1.265       .  A
O426        C438   1.273       .  A
O427        C440   1.268       .  A
C428        O433   1.277       .  A
C428       C1933   1.481       .  S
C429       C1945   1.486       .  S
O431        C434   1.273       .  A
O432        C434   1.268       .  A
C434       C1957   1.490       .  S
O435        C440   1.263       .  A
O436        C438   1.269       .  A
C437        O439   1.276       .  A
C437       C2149   1.501       .  S
C438       C1921   1.492       .  S
C440       C1984   1.482       .  S
Fe441       O457   2.038       .  S
Fe441       O447   2.032       .  S
Fe441       O454   2.033       .  S
Fe441       O446   2.038       .  S
Fe441       O452   1.966       .  S
Fe442       O445   2.047       .  S
Fe442       O449   2.085       .  S
Fe442       O453   2.068       .  S
Fe442       O458   2.059       .  S
Fe442       O452   1.983       .  S
Fe443       O461   2.101       .  S
Fe443       O448   2.086       .  S
Fe443       O455   2.103       .  S
Fe443       O444   2.121       .  S
Fe443       O452   1.991       .  S
O444        C451   1.278       .  A
O445        C459   1.267       .  A
O446        C451   1.264       .  A
O447        C450   1.260       .  A
O448        C460   1.272       .  A
O449        C462   1.270       .  A
C450        O455   1.272       .  A
C450       C1912   1.478       .  S
C451       C1897   1.489       .  S
O453        C456   1.266       .  A
O454        C456   1.263       .  A
C456       C2008   1.475       .  S
O457        C462   1.265       .  A
O458        C460   1.269       .  A
C459        O461   1.277       .  A
C459       C1885   1.498       .  S
C460       C2668   1.492       .  S
C462       C1960   1.485       .  S
Fe463       O479   2.036       .  S
Fe463       O469   2.039       .  S
Fe463       O476   2.043       .  S
Fe463       O468   2.044       .  S
Fe463       O474   1.962       .  S
Fe464       O467   2.061       .  S
Fe464       O471   2.087       .  S
Fe464       O475   2.081       .  S
Fe464       O480   2.063       .  S
Fe464       O474   1.984       .  S
Fe465       O483   2.089       .  S
Fe465       O470   2.086       .  S
Fe465       O477   2.107       .  S
Fe465       O466   2.104       .  S
Fe465       O474   1.993       .  S
O466        C473   1.274       .  A
O467        C481   1.269       .  A
O468        C473   1.264       .  A
O469        C472   1.263       .  A
O470        C482   1.273       .  A
O471        C484   1.270       .  A
C472        O477   1.274       .  A
C472       C1936   1.480       .  S
C473       C1972   1.482       .  S
O475        C478   1.269       .  A
O476        C478   1.266       .  A
C478       C1861   1.488       .  S
O479        C484   1.265       .  A
O480        C482   1.271       .  A
C481        O483   1.274       .  A
C481       C2524   1.494       .  S
C482       C1849   1.490       .  S
C484       C1873   1.484       .  S
Fe485       O501   2.047       .  S
Fe485       O491   2.043       .  S
Fe485       O498   2.047       .  S
Fe485       O490   2.048       .  S
Fe485       O496   1.967       .  S
Fe486       O489   2.060       .  S
Fe486       O493   2.074       .  S
Fe486       O497   2.081       .  S
Fe486       O502   2.056       .  S
Fe486       O496   1.982       .  S
Fe487       O505   2.091       .  S
Fe487       O492   2.076       .  S
Fe487       O499   2.091       .  S
Fe487       O488   2.110       .  S
Fe487       O496   1.995       .  S
O488        C495   1.275       .  A
O489        C503   1.268       .  A
O490        C495   1.265       .  A
O491        C494   1.264       .  A
O492        C504   1.271       .  A
O493        C506   1.269       .  A
C494        O499   1.271       .  A
C494       C1909   1.475       .  S
C495       C1948   1.486       .  S
O497        C500   1.269       .  A
O498        C500   1.265       .  A
C500       C1876   1.489       .  S
O501        C506   1.267       .  A
O502        C504   1.270       .  A
C503        O505   1.273       .  A
C503       C2068   1.494       .  S
C504       C2560   1.480       .  S
C506       C1837   1.482       .  S
Fe507       O523   2.038       .  S
Fe507       O513   2.044       .  S
Fe507       O520   2.046       .  S
Fe507       O512   2.039       .  S
Fe507       O518   1.970       .  S
Fe508       O511   2.064       .  S
Fe508       O515   2.089       .  S
Fe508       O519   2.078       .  S
Fe508       O524   2.072       .  S
Fe508       O518   1.981       .  S
Fe509       O527   2.095       .  S
Fe509       O514   2.094       .  S
Fe509       O521   2.113       .  S
Fe509       O510   2.112       .  S
Fe509       O518   1.991       .  S
O510        C517   1.275       .  A
O511        C525   1.270       .  A
O512        C517   1.262       .  A
O513        C516   1.264       .  A
O514        C526   1.274       .  A
O515        C528   1.271       .  A
C516        O521   1.276       .  A
C516       C1996   1.486       .  S
C517       C1900   1.485       .  S
O519        C522   1.271       .  A
O520        C522   1.266       .  A
C522       C1840   1.485       .  S
O523        C528   1.263       .  A
O524        C526   1.272       .  A
C525        O527   1.275       .  A
C525       C1825   1.497       .  S
C526       C2032   1.501       .  S
C528       C1864   1.489       .  S
Fe529       O545   2.031       .  S
Fe529       O535   2.078       .  S
Fe529       O542   2.064       .  S
Fe529       O534   2.028       .  S
Fe529       O540   1.933       .  S
Fe530       O533   2.049       .  S
Fe530       O537   2.104       .  S
Fe530       O541   2.068       .  S
Fe530       O546   2.074       .  S
Fe530       O540   1.945       .  S
Fe531       O549   2.102       .  S
Fe531       O536   2.085       .  S
Fe531       O543   2.098       .  S
Fe531       O532   2.129       .  S
Fe531       O540   1.953       .  S
O532        C539   1.282       .  A
O533        C547   1.268       .  A
O534        C539   1.266       .  A
O535        C538   1.268       .  A
O536        C548   1.276       .  A
O537        C550   1.280       .  A
C538        O543   1.271       .  A
C538       C1801   1.490       .  S
C539       C1813   1.478       .  S
O541        C544   1.263       .  A
O542        C544   1.267       .  A
C544       C1777   1.476       .  S
O545        C550   1.268       .  A
O546        C548   1.276       .  A
C547        O549   1.276       .  A
C547       C1765   1.486       .  S
C548       C2716   1.495       .  S
C550       C1789   1.486       .  S
Fe551       O567   2.046       .  S
Fe551       O557   2.035       .  S
Fe551       O564   2.038       .  S
Fe551       O556   2.049       .  S
Fe551       O562   1.951       .  S
Fe552       O555   2.072       .  S
Fe552       O559   2.078       .  S
Fe552       O563   2.088       .  S
Fe552       O568   2.055       .  S
Fe552       O562   1.965       .  S
Fe553       O571   2.099       .  S
Fe553       O558   2.099       .  S
Fe553       O565   2.133       .  S
Fe553       O554   2.104       .  S
Fe553       O562   1.970       .  S
O554        C561   1.272       .  A
O555        C569   1.272       .  A
O556        C561   1.262       .  A
O557        C560   1.266       .  A
O558        C570   1.277       .  A
O559        C572   1.269       .  A
C560        O565   1.282       .  A
C560       C1804   1.489       .  S
C561       C1741   1.485       .  S
O563        C566   1.273       .  A
O564        C566   1.265       .  A
C566       C1756   1.489       .  S
O567        C572   1.264       .  A
O568        C570   1.269       .  A
C569        O571   1.277       .  A
C569       C1720   1.508       .  S
C570       C2536   1.488       .  S
C572       C1729   1.481       .  S
Fe573       O589   2.060       .  S
Fe573       O579   2.030       .  S
Fe573       O586   2.036       .  S
Fe573       O578   2.062       .  S
Fe573       O584   1.966       .  S
Fe574       O577   2.059       .  S
Fe574       O581   2.060       .  S
Fe574       O585   2.074       .  S
Fe574       O590   2.054       .  S
Fe574       O584   1.978       .  S
Fe575       O593   2.080       .  S
Fe575       O580   2.099       .  S
Fe575       O587   2.114       .  S
Fe575       O576   2.096       .  S
Fe575       O584   1.989       .  S
O576        C583   1.273       .  A
O577        C591   1.269       .  A
O578        C583   1.268       .  A
O579        C582   1.261       .  A
O580        C592   1.275       .  A
O581        C594   1.266       .  A
C582        O587   1.275       .  A
C582       C1705   1.480       .  S
C583       C1744   1.485       .  S
O585        C588   1.269       .  A
O586        C588   1.265       .  A
C588       C1792   1.477       .  S
O589        C594   1.268       .  A
O590        C592   1.268       .  A
C591        O593   1.273       .  A
C591       C1681   1.481       .  S
C592       C1669   1.493       .  S
C594       C1693   1.481       .  S
Fe595       O611   2.042       .  S
Fe595       O601   2.034       .  S
Fe595       O608   2.050       .  S
Fe595       O600   2.042       .  S
Fe595       O606   1.924       .  S
Fe596       O599   2.058       .  S
Fe596       O603   2.087       .  S
Fe596       O607   2.099       .  S
Fe596       O612   2.055       .  S
Fe596       O606   1.939       .  S
Fe597       O615   2.095       .  S
Fe597       O602   2.099       .  S
Fe597       O609   2.145       .  S
Fe597       O598   2.130       .  S
Fe597       O606   1.951       .  S
O598        C605   1.269       .  A
O599        C613   1.274       .  A
O600        C605   1.250       .  A
O601        C604   1.274       .  A
O602        C614   1.275       .  A
O603        C616   1.265       .  A
C604        O609   1.290       .  A
C604       C1657   1.491       .  S
C605       C1645   1.498       .  S
O607        C610   1.279       .  A
O608        C610   1.274       .  A
C610       C1696   1.488       .  S
O611        C616   1.259       .  A
O612        C614   1.269       .  A
C613        O615   1.280       .  A
C613       C2656   1.488       .  S
C614       C1636   1.491       .  S
C616       C1780   1.481       .  S
Fe617       O633   2.047       .  S
Fe617       O623   2.041       .  S
Fe617       O630   2.036       .  S
Fe617       O622   2.043       .  S
Fe617       O628   1.955       .  S
Fe618       O621   2.062       .  S
Fe618       O625   2.085       .  S
Fe618       O629   2.077       .  S
Fe618       O634   2.067       .  S
Fe618       O628   1.979       .  S
Fe619       O637   2.084       .  S
Fe619       O624   2.077       .  S
Fe619       O631   2.097       .  S
Fe619       O620   2.100       .  S
Fe619       O628   1.989       .  S
O620        C627   1.274       .  A
O621        C635   1.270       .  A
O622        C627   1.265       .  A
O623        C626   1.263       .  A
O624        C636   1.271       .  A
O625        C638   1.272       .  A
C626        O631   1.272       .  A
C626       C1660   1.476       .  S
C627       C1816   1.477       .  S
O629        C632   1.267       .  A
O630        C632   1.264       .  A
C632       C1732   1.480       .  S
O633        C638   1.267       .  A
O634        C636   1.270       .  A
C635        O637   1.273       .  A
C635       C1612   1.479       .  S
C636       C1597   1.485       .  S
C638       C1621   1.488       .  S
Fe639       O655   2.034       .  S
Fe639       O645   2.079       .  S
Fe639       O652   2.053       .  S
Fe639       O644   2.026       .  S
Fe639       O650   1.923       .  S
Fe640       O643   2.051       .  S
Fe640       O647   2.093       .  S
Fe640       O651   2.075       .  S
Fe640       O656   2.072       .  S
Fe640       O650   1.944       .  S
Fe641       O659   2.091       .  S
Fe641       O646   2.083       .  S
Fe641       O653   2.085       .  S
Fe641       O642   2.134       .  S
Fe641       O650   1.962       .  S
O642        C649   1.278       .  A
O643        C657   1.268       .  A
O644        C649   1.260       .  A
O645        C648   1.270       .  A
O646        C658   1.278       .  A
O647        C660   1.274       .  A
C648        O653   1.271       .  A
C648       C1708   1.482       .  S
C649       C1648   1.481       .  S
O651        C654   1.268       .  A
O652        C654   1.266       .  A
C654       C1624   1.477       .  S
O655        C660   1.268       .  A
O656        C658   1.275       .  A
C657        O659   1.274       .  A
C657       C2512   1.482       .  S
C658       C1585   1.496       .  S
C660       C1753   1.488       .  S
Fe661       O677   2.039       .  S
Fe661       O667   2.046       .  S
Fe661       O674   2.043       .  S
Fe661       O666   2.044       .  S
Fe661       O672   1.966       .  S
Fe662       O665   2.061       .  S
Fe662       O669   2.074       .  S
Fe662       O673   2.077       .  S
Fe662       O678   2.053       .  S
Fe662       O672   1.986       .  S
Fe663       O681   2.111       .  S
Fe663       O668   2.079       .  S
Fe663       O675   2.099       .  S
Fe663       O664   2.122       .  S
Fe663       O672   1.991       .  S
O664        C671   1.280       .  A
O665        C679   1.270       .  A
O666        C671   1.265       .  A
O667        C670   1.263       .  A
O668        C680   1.270       .  A
O669        C682   1.269       .  A
C670        O675   1.271       .  A
C670       C1573   1.483       .  S
C671       C1564   1.489       .  S
O673        C676   1.268       .  A
O674        C676   1.266       .  A
C676       C1552   1.483       .  S
O677        C682   1.265       .  A
O678        C680   1.267       .  A
C679        O681   1.279       .  A
C679       C1525   1.500       .  S
C680       C1684   1.483       .  S
C682       C1537   1.475       .  S
Fe683       O699   2.045       .  S
Fe683       O689   2.055       .  S
Fe683       O696   2.050       .  S
Fe683       O688   2.039       .  S
Fe683       O694   1.966       .  S
Fe684       O687   2.053       .  S
Fe684       O691   2.086       .  S
Fe684       O695   2.063       .  S
Fe684       O700   2.067       .  S
Fe684       O694   1.983       .  S
Fe685       O703   2.084       .  S
Fe685       O690   2.085       .  S
Fe685       O697   2.098       .  S
Fe685       O686   2.103       .  S
Fe685       O694   1.995       .  S
O686        C693   1.273       .  A
O687        C701   1.267       .  A
O688        C693   1.262       .  A
O689        C692   1.267       .  A
O690        C702   1.274       .  A
O691        C704   1.271       .  A
C692        O697   1.273       .  A
C692       C1504   1.483       .  S
C693       C1516   1.479       .  S
O695        C698   1.267       .  A
O696        C698   1.266       .  A
C698       C1540   1.473       .  S
O699        C704   1.266       .  A
O700        C702   1.271       .  A
C701        O703   1.271       .  A
C701       C1924   1.488       .  S
C702       C1480   1.485       .  S
C704       C1489   1.485       .  S
Fe705       O721   2.044       .  S
Fe705       O711   2.045       .  S
Fe705       O718   2.050       .  S
Fe705       O710   2.044       .  S
Fe705       O716   1.966       .  S
Fe706       O709   2.063       .  S
Fe706       O713   2.081       .  S
Fe706       O717   2.086       .  S
Fe706       O722   2.064       .  S
Fe706       O716   1.977       .  S
Fe707       O725   2.086       .  S
Fe707       O712   2.088       .  S
Fe707       O719   2.103       .  S
Fe707       O708   2.097       .  S
Fe707       O716   1.993       .  S
O708        C715   1.271       .  A
O709        C723   1.269       .  A
O710        C715   1.263       .  A
O711        C714   1.265       .  A
O712        C724   1.275       .  A
O713        C726   1.272       .  A
C714        O719   1.274       .  A
C714       C1465   1.482       .  S
C715       C1453   1.479       .  S
O717        C720   1.271       .  A
O718        C720   1.266       .  A
C720       C1492   1.491       .  S
O721        C726   1.265       .  A
O722        C724   1.274       .  A
C723        O725   1.271       .  A
C723       C1633   1.492       .  S
C724       C1888   1.500       .  S
C726       C1549   1.485       .  S
Fe727       O743   2.035       .  S
Fe727       O733   2.039       .  S
Fe727       O740   2.038       .  S
Fe727       O732   2.042       .  S
Fe727       O738   1.967       .  S
Fe728       O731   2.056       .  S
Fe728       O735   2.076       .  S
Fe728       O739   2.074       .  S
Fe728       O744   2.062       .  S
Fe728       O738   1.984       .  S
Fe729       O747   2.093       .  S
Fe729       O734   2.091       .  S
Fe729       O741   2.104       .  S
Fe729       O730   2.116       .  S
Fe729       O738   1.989       .  S
O730        C737   1.278       .  A
O731        C745   1.271       .  A
O732        C737   1.263       .  A
O733        C736   1.262       .  A
O734        C746   1.272       .  A
O735        C748   1.268       .  A
C736        O741   1.272       .  A
C736       C1468   1.481       .  S
C737       C1561   1.487       .  S
O739        C742   1.270       .  A
O740        C742   1.266       .  A
C742       C1444   1.477       .  S
O743        C748   1.262       .  A
O744        C746   1.268       .  A
C745        O747   1.276       .  A
C745       C1417   1.500       .  S
C746       C1828   1.498       .  S
C748       C1429   1.480       .  S
Fe749       O765   2.043       .  S
Fe749       O755   2.042       .  S
Fe749       O762   2.044       .  S
Fe749       O754   2.031       .  S
Fe749       O760   1.953       .  S
Fe750       O753   2.063       .  S
Fe750       O757   2.085       .  S
Fe750       O761   2.082       .  S
Fe750       O766   2.070       .  S
Fe750       O760   1.962       .  S
Fe751       O769   2.093       .  S
Fe751       O756   2.096       .  S
Fe751       O763   2.108       .  S
Fe751       O752   2.120       .  S
Fe751       O760   1.973       .  S
O752        C759   1.280       .  A
O753        C767   1.273       .  A
O754        C759   1.267       .  A
O755        C758   1.260       .  A
O756        C768   1.274       .  A
O757        C770   1.273       .  A
C758        O763   1.272       .  A
C758       C1576   1.484       .  S
C759       C1513   1.483       .  S
O761        C764   1.271       .  A
O762        C764   1.263       .  A
C764       C1405   1.484       .  S
O765        C770   1.266       .  A
O766        C768   1.271       .  A
C767        O769   1.277       .  A
C767       C1852   1.491       .  S
C768       C1717   1.505       .  S
C770       C1441   1.489       .  S
Fe771       O787   2.038       .  S
Fe771       O777   2.048       .  S
Fe771       O784   2.038       .  S
Fe771       O776   2.026       .  S
Fe771       O782   1.958       .  S
Fe772       O775   2.046       .  S
Fe772       O779   2.086       .  S
Fe772       O783   2.065       .  S
Fe772       O788   2.062       .  S
Fe772       O782   1.975       .  S
Fe773       O791   2.094       .  S
Fe773       O778   2.087       .  S
Fe773       O785   2.100       .  S
Fe773       O774   2.114       .  S
Fe773       O782   1.984       .  S
O774        C781   1.275       .  A
O775        C789   1.268       .  A
O776        C781   1.261       .  A
O777        C780   1.264       .  A
O778        C790   1.274       .  A
O779        C792   1.271       .  A
C780        O785   1.274       .  A
C780       C1501   1.480       .  S
C781       C1456   1.480       .  S
O783        C786   1.266       .  A
O784        C786   1.264       .  A
C786       C1432   1.472       .  S
O787        C792   1.267       .  A
O788        C790   1.271       .  A
C789        O791   1.274       .  A
C789       C1600   1.493       .  S
C790       C1393   1.490       .  S
C792       C1408   1.492       .  S
Fe793       O809   2.039       .  S
Fe793       O799   2.073       .  S
Fe793       O806   2.057       .  S
Fe793       O798   2.029       .  S
Fe793       O804   1.938       .  S
Fe794       O797   2.058       .  S
Fe794       O801   2.099       .  S
Fe794       O805   2.078       .  S
Fe794       O810   2.081       .  S
Fe794       O804   1.945       .  S
Fe795       O813   2.099       .  S
Fe795       O800   2.088       .  S
Fe795       O807   2.096       .  S
Fe795       O796   2.136       .  S
Fe795       O804   1.949       .  S
O796        C803   1.284       .  A
O797        C811   1.270       .  A
O798        C803   1.266       .  A
O799        C802   1.265       .  A
O800        C812   1.277       .  A
O801        C814   1.279       .  A
C802        O807   1.270       .  A
C802       C1360   1.488       .  S
C803       C1348   1.482       .  S
O805        C808   1.267       .  A
O806        C808   1.267       .  A
C808       C1384   1.476       .  S
O809        C814   1.268       .  A
O810        C812   1.276       .  A
C811        O813   1.276       .  A
C811       C2284   1.498       .  S
C812       C1333   1.495       .  S
C814       C1369   1.491       .  S
Fe815       O831   2.051       .  S
Fe815       O821   2.035       .  S
Fe815       O828   2.050       .  S
Fe815       O820   2.063       .  S
Fe815       O826   1.947       .  S
Fe816       O819   2.068       .  S
Fe816       O823   2.083       .  S
Fe816       O827   2.088       .  S
Fe816       O832   2.057       .  S
Fe816       O826   1.957       .  S
Fe817       O835   2.085       .  S
Fe817       O822   2.091       .  S
Fe817       O829   2.120       .  S
Fe817       O818   2.101       .  S
Fe817       O826   1.967       .  S
O818        C825   1.271       .  A
O819        C833   1.273       .  A
O820        C825   1.263       .  A
O821        C824   1.268       .  A
O822        C834   1.273       .  A
O823        C836   1.266       .  A
C824        O829   1.280       .  A
C824       C1309   1.480       .  S
C825       C1297   1.487       .  S
O827        C830   1.277       .  A
O828        C830   1.272       .  A
C830       C1321   1.492       .  S
O831        C836   1.263       .  A
O832        C834   1.268       .  A
C833        O835   1.275       .  A
C833       C1285   1.490       .  S
C834       C1609   1.481       .  S
C836       C1381   1.479       .  S
Fe837       O853   2.048       .  S
Fe837       O843   2.027       .  S
Fe837       O850   2.031       .  S
Fe837       O842   2.062       .  S
Fe837       O848   1.937       .  S
Fe838       O841   2.072       .  S
Fe838       O845   2.079       .  S
Fe838       O849   2.100       .  S
Fe838       O854   2.065       .  S
Fe838       O848   1.951       .  S
Fe839       O857   2.079       .  S
Fe839       O844   2.101       .  S
Fe839       O851   2.132       .  S
Fe839       O840   2.091       .  S
Fe839       O848   1.952       .  S
O840        C847   1.269       .  A
O841        C855   1.274       .  A
O842        C847   1.264       .  A
O843        C846   1.264       .  A
O844        C856   1.278       .  A
O845        C858   1.269       .  A
C846        O851   1.283       .  A
C846       C1273   1.483       .  S
C847       C1261   1.482       .  S
O849        C852   1.276       .  A
O850        C852   1.267       .  A
C852       C1372   1.490       .  S
O853        C858   1.265       .  A
O854        C856   1.273       .  A
C855        O857   1.273       .  A
C855       C1588   1.493       .  S
C856       C2260   1.498       .  S
C858       C1324   1.478       .  S
Fe859       O875   2.035       .  S
Fe859       O865   2.069       .  S
Fe859       O872   2.050       .  S
Fe859       O864   2.023       .  S
Fe859       O870   1.938       .  S
Fe860       O863   2.057       .  S
Fe860       O867   2.099       .  S
Fe860       O871   2.076       .  S
Fe860       O876   2.069       .  S
Fe860       O870   1.953       .  S
Fe861       O879   2.107       .  S
Fe861       O866   2.078       .  S
Fe861       O873   2.097       .  S
Fe861       O862   2.141       .  S
Fe861       O870   1.957       .  S
O862        C869   1.285       .  A
O863        C877   1.270       .  A
O864        C869   1.265       .  A
O865        C868   1.264       .  A
O866        C878   1.274       .  A
O867        C880   1.277       .  A
C868        O873   1.270       .  A
C868       C1357   1.486       .  S
C869       C1264   1.485       .  S
O871        C874   1.265       .  A
O872        C874   1.266       .  A
C874       C1240   1.478       .  S
O875        C880   1.270       .  A
O876        C878   1.274       .  A
C877        O879   1.278       .  A
C877       C1672   1.497       .  S
C878       C1225   1.484       .  S
C880       C1252   1.489       .  S
Fe881       O897   2.052       .  S
Fe881       O887   2.033       .  S
Fe881       O894   2.039       .  S
Fe881       O886   2.068       .  S
Fe881       O892   1.937       .  S
Fe882       O885   2.084       .  S
Fe882       O889   2.080       .  S
Fe882       O893   2.104       .  S
Fe882       O898   2.047       .  S
Fe882       O892   1.945       .  S
Fe883       O901   2.087       .  S
Fe883       O888   2.097       .  S
Fe883       O895   2.138       .  S
Fe883       O884   2.098       .  S
Fe883       O892   1.951       .  S
O884        C891   1.268       .  A
O885        C899   1.279       .  A
O886        C891   1.262       .  A
O887        C890   1.268       .  A
O888        C900   1.274       .  A
O889        C902   1.267       .  A
C890        O895   1.285       .  A
C890       C1276   1.483       .  S
C891       C1300   1.487       .  S
O893        C896   1.280       .  A
O894        C896   1.271       .  A
C896       C1216   1.492       .  S
O897        C902   1.264       .  A
O898        C900   1.267       .  A
C899        O901   1.278       .  A
C899       C1201   1.498       .  S
C900       C2380   1.495       .  S
C902       C1237   1.481       .  S
Fe903       O919   2.048       .  S
Fe903       O909   2.048       .  S
Fe903       O916   2.044       .  S
Fe903       O908   2.036       .  S
Fe903       O914   1.954       .  S
Fe904       O907   2.059       .  S
Fe904       O911   2.088       .  S
Fe904       O915   2.075       .  S
Fe904       O920   2.072       .  S
Fe904       O914   1.960       .  S
Fe905       O923   2.102       .  S
Fe905       O910   2.076       .  S
Fe905       O917   2.088       .  S
Fe905       O906   2.120       .  S
Fe905       O914   1.970       .  S
O906        C913   1.279       .  A
O907        C921   1.270       .  A
O908        C913   1.265       .  A
O909        C912   1.262       .  A
O910        C922   1.272       .  A
O911        C924   1.275       .  A
C912        O917   1.269       .  A
C912       C1312   1.476       .  S
C913       C1345   1.482       .  S
O915        C918   1.268       .  A
O916        C918   1.262       .  A
C918       C1249   1.478       .  S
O919        C924   1.269       .  A
O920        C922   1.273       .  A
C921        O923   1.277       .  A
C921       C2344   1.497       .  S
C922       C1768   1.494       .  S
C924       C1213   1.492       .  S
Fe925       O941   2.040       .  S
Fe925       O931   2.060       .  S
Fe925       O938   2.052       .  S
Fe925       O930   2.033       .  S
Fe925       O936   1.953       .  S
Fe926       O929   2.043       .  S
Fe926       O933   2.085       .  S
Fe926       O937   2.060       .  S
Fe926       O942   2.072       .  S
Fe926       O936   1.967       .  S
Fe927       O945   2.101       .  S
Fe927       O932   2.073       .  S
Fe927       O939   2.080       .  S
Fe927       O928   2.116       .  S
Fe927       O936   1.977       .  S
O928        C935   1.276       .  A
O929        C943   1.267       .  A
O930        C935   1.262       .  A
O931        C934   1.268       .  A
O932        C944   1.272       .  A
O933        C946   1.273       .  A
C934        O939   1.269       .  A
C934       C1180   1.475       .  S
C935       C1153   1.482       .  S
O937        C940   1.265       .  A
O938        C940   1.268       .  A
C940       C1165   1.477       .  S
O941        C946   1.264       .  A
O942        C944   1.272       .  A
C943        O945   1.275       .  A
C943       C2044   1.498       .  S
C944       C1420   1.493       .  S
C946       C1189   1.490       .  S
Fe947       O963   2.038       .  S
Fe947       O953   2.035       .  S
Fe947       O960   2.059       .  S
Fe947       O952   2.057       .  S
Fe947       O958   1.935       .  S
Fe948       O951   2.076       .  S
Fe948       O955   2.080       .  S
Fe948       O959   2.097       .  S
Fe948       O964   2.069       .  S
Fe948       O958   1.940       .  S
Fe949       O967   2.091       .  S
Fe949       O954   2.089       .  S
Fe949       O961   2.131       .  S
Fe949       O950   2.122       .  S
Fe949       O958   1.962       .  S
O950        C957   1.273       .  A
O951        C965   1.279       .  A
O952        C957   1.261       .  A
O953        C956   1.265       .  A
O954        C966   1.271       .  A
O955        C968   1.265       .  A
C956        O961   1.281       .  A
C956       C1177   1.480       .  S
C957       C1129   1.503       .  S
O959        C962   1.281       .  A
O960        C962   1.277       .  A
C962       C1117   1.494       .  S
O963        C968   1.259       .  A
O964        C966   1.270       .  A
C965        O967   1.282       .  A
C965       C1228   1.487       .  S
C966       C1528   1.504       .  S
C968       C1141   1.478       .  S
Fe969       O985   2.035       .  S
Fe969       O975   2.072       .  S
Fe969       O982   2.056       .  S
Fe969       O974   2.032       .  S
Fe969       O980   1.939       .  S
Fe970       O973   2.030       .  S
Fe970       O977   2.089       .  S
Fe970       O981   2.057       .  S
Fe970       O986   2.071       .  S
Fe970       O980   1.959       .  S
Fe971       O989   2.091       .  S
Fe971       O976   2.093       .  S
Fe971       O983   2.094       .  S
Fe971       O972   2.121       .  S
Fe971       O980   1.966       .  S
O972        C979   1.278       .  A
O973        C987   1.264       .  A
O974        C979   1.263       .  A
O975        C978   1.268       .  A
O976        C988   1.278       .  A
O977        C990   1.272       .  A
C978        O983   1.272       .  A
C978       C1105   1.486       .  S
C979       C1156   1.480       .  S
O981        C984   1.264       .  A
O982        C984   1.268       .  A
C984       C1144   1.470       .  S
O985        C990   1.267       .  A
O986        C988   1.273       .  A
C987        O989   1.273       .  A
C987       C2200   1.484       .  S
C988       C1204   1.500       .  S
C990       C1093   1.489       .  S
Fe991      O1007   2.048       .  S
Fe991       O997   2.041       .  S
Fe991      O1004   2.037       .  S
Fe991       O996   2.036       .  S
Fe991      O1002   1.964       .  S
Fe992       O995   2.063       .  S
Fe992       O999   2.088       .  S
Fe992      O1003   2.078       .  S
Fe992      O1008   2.070       .  S
Fe992      O1002   1.975       .  S
Fe993      O1011   2.085       .  S
Fe993       O998   2.073       .  S
Fe993      O1005   2.092       .  S
Fe993       O994   2.106       .  S
Fe993      O1002   1.990       .  S
O994       C1001   1.274       .  A
O995       C1009   1.271       .  A
O996       C1001   1.264       .  A
O997       C1000   1.262       .  A
O998       C1010   1.271       .  A
O999       C1012   1.274       .  A
C1000      O1005   1.270       .  A
C1000      C1081   1.475       .  S
C1001      C1072   1.479       .  S
O1003      C1006   1.269       .  A
O1004      C1006   1.263       .  A
C1006      C1096   1.484       .  S
O1007      C1012   1.266       .  A
O1008      C1010   1.270       .  A
C1009      O1011   1.274       .  A
C1009      C1477   1.489       .  S
C1010      C2140   1.490       .  S
C1012      C1120   1.495       .  S
Fe1013     O1029   2.046       .  S
Fe1013     O1019   2.068       .  S
Fe1013     O1026   2.064       .  S
Fe1013     O1018   2.040       .  S
Fe1013     O1024   1.964       .  S
Fe1014     O1017   2.052       .  S
Fe1014     O1021   2.076       .  S
Fe1014     O1025   2.071       .  S
Fe1014     O1030   2.062       .  S
Fe1014     O1024   1.978       .  S
Fe1015     O1033   2.078       .  S
Fe1015     O1020   2.097       .  S
Fe1015     O1027   2.102       .  S
Fe1015     O1016   2.092       .  S
Fe1015     O1024   1.989       .  S
O1016      C1023   1.269       .  A
O1017      C1031   1.264       .  A
O1018      C1023   1.262       .  A
O1019      C1022   1.271       .  A
O1020      C1032   1.280       .  A
O1021      C1034   1.272       .  A
C1022      O1027   1.276       .  A
C1022      C1108   1.487       .  S
C1023      C1069   1.476       .  S
O1025      C1028   1.266       .  A
O1026      C1028   1.267       .  A
C1028      C1060   1.483       .  S
O1029      C1034   1.267       .  A
O1030      C1032   1.275       .  A
C1031      O1033   1.267       .  A
C1031      C1396   1.486       .  S
C1032      C1288   1.494       .  S
C1034      C1168   1.477       .  S
Fe1035     O1051   2.048       .  S
Fe1035     O1041   2.027       .  S
Fe1035     O1048   2.047       .  S
Fe1035     O1040   2.053       .  S
Fe1035     O1046   1.929       .  S
Fe1036     O1039   2.079       .  S
Fe1036     O1043   2.083       .  S
Fe1036     O1047   2.101       .  S
Fe1036     O1052   2.059       .  S
Fe1036     O1046   1.933       .  S
Fe1037     O1055   2.094       .  S
Fe1037     O1042   2.092       .  S
Fe1037     O1049   2.133       .  S
Fe1037     O1038   2.134       .  S
Fe1037     O1046   1.951       .  S
O1038      C1045   1.273       .  A
O1039      C1053   1.279       .  A
O1040      C1045   1.255       .  A
O1041      C1044   1.268       .  A
O1042      C1054   1.273       .  A
O1043      C1056   1.266       .  A
C1044      O1049   1.284       .  A
C1044      C1084   1.479       .  S
C1045      C1132   1.507       .  S
O1047      C1050   1.281       .  A
O1048      C1050   1.275       .  A
C1050      C1192   1.490       .  S
O1051      C1056   1.260       .  A
O1052      C1054   1.268       .  A
C1053      O1055   1.282       .  A
C1053      C1336   1.495       .  S
C1054      C2020   1.490       .  S
C1056      C1057   1.474       .  S
C1057      C1058   1.404       .  A
C1057      C1062   1.409       .  A
C1058      C1059   1.401       .  A
C1058      H1063   1.085       .  S
C1059      C1060   1.410       .  A
C1059      C1066   1.444       .  S
C1060      C1061   1.407       .  A
C1061      C1062   1.404       .  A
C1061      H1064   1.085       .  S
C1062      C1065   1.443       .  S
C1065      N1067   1.157       .  T
C1066      N1068   1.157       .  T
C1069      C1070   1.406       .  A
C1069      C1074   1.408       .  A
C1070      C1071   1.406       .  A
C1070      H1075   1.084       .  S
C1071      C1072   1.406       .  A
C1071      C1078   1.439       .  S
C1072      C1073   1.405       .  A
C1073      C1074   1.401       .  A
C1073      H1076   1.085       .  S
C1074      C1077   1.443       .  S
C1077      N1079   1.157       .  T
C1078      N1080   1.157       .  T
C1081      C1082   1.406       .  A
C1081      C1086   1.409       .  A
C1082      C1083   1.404       .  A
C1082      H1087   1.085       .  S
C1083      C1084   1.411       .  A
C1083      C1090   1.444       .  S
C1084      C1085   1.404       .  A
C1085      C1086   1.399       .  A
C1085      H1088   1.086       .  S
C1086      C1089   1.440       .  S
C1089      N1091   1.156       .  T
C1090      N1092   1.157       .  T
C1093      C1094   1.404       .  A
C1093      C1098   1.416       .  A
C1094      C1095   1.390       .  A
C1094      H1099   1.085       .  S
C1095      C1096   1.416       .  A
C1095      C1102   1.446       .  S
C1096      C1097   1.407       .  A
C1097      C1098   1.407       .  A
C1097      H1100   1.084       .  S
C1098      C1101   1.443       .  S
C1101      N1103   1.157       .  T
C1102      N1104   1.157       .  T
C1105      C1106   1.404       .  A
C1105      C1110   1.413       .  A
C1106      C1107   1.410       .  A
C1106      H1111   1.084       .  S
C1107      C1108   1.414       .  A
C1107      C1114   1.444       .  S
C1108      C1109   1.402       .  A
C1109      C1110   1.405       .  A
C1109      H1112   1.081       .  S
C1110      C1113   1.444       .  S
C1113      N1115   1.157       .  T
C1114      N1116   1.157       .  T
C1117      C1118   1.406       .  A
C1117      C1122   1.418       .  A
C1118      C1119   1.400       .  A
C1118      H1123   1.084       .  S
C1119      C1120   1.418       .  A
C1119      C1126   1.445       .  S
C1120      C1121   1.407       .  A
C1121      C1122   1.404       .  A
C1121      H1124   1.084       .  S
C1122      C1125   1.444       .  S
C1125      N1127   1.157       .  T
C1126      N1128   1.157       .  T
C1129      C1130   1.403       .  A
C1129      C1134   1.416       .  A
C1130      C1131   1.390       .  A
C1130      H1135   1.085       .  S
C1131      C1132   1.422       .  A
C1131      C1138   1.448       .  S
C1132      C1133   1.414       .  A
C1133      C1134   1.423       .  A
C1133      H1136   1.084       .  S
C1134      C1137   1.441       .  S
C1137      N1139   1.157       .  T
C1138      N1140   1.158       .  T
C1141      C1142   1.406       .  A
C1141      C1146   1.415       .  A
C1142      C1143   1.408       .  A
C1142      H1147   1.084       .  S
C1143      C1144   1.412       .  A
C1143      C1150   1.443       .  S
C1144      C1145   1.396       .  A
C1145      C1146   1.390       .  A
C1145      H1148   1.086       .  S
C1146      C1149   1.441       .  S
C1149      N1151   1.156       .  T
C1150      N1152   1.157       .  T
C1153      C1154   1.402       .  A
C1153      C1158   1.415       .  A
C1154      C1155   1.406       .  A
C1154      H1159   1.085       .  S
C1155      C1156   1.414       .  A
C1155      C1162   1.444       .  S
C1156      C1157   1.402       .  A
C1157      C1158   1.404       .  A
C1157      H1160   1.085       .  S
C1158      C1161   1.445       .  S
C1161      N1163   1.157       .  T
C1162      N1164   1.157       .  T
C1165      C1166   1.399       .  A
C1165      C1170   1.414       .  A
C1166      C1167   1.390       .  A
C1166      H1171   1.086       .  S
C1167      C1168   1.414       .  A
C1167      C1174   1.443       .  S
C1168      C1169   1.405       .  A
C1169      C1170   1.405       .  A
C1169      H1172   1.085       .  S
C1170      C1173   1.444       .  S
C1173      N1175   1.157       .  T
C1174      N1176   1.156       .  T
C1177      C1178   1.402       .  A
C1177      C1182   1.414       .  A
C1178      C1179   1.403       .  A
C1178      H1183   1.085       .  S
C1179      C1180   1.413       .  A
C1179      C1186   1.445       .  S
C1180      C1181   1.401       .  A
C1181      C1182   1.404       .  A
C1181      H1184   1.085       .  S
C1182      C1185   1.445       .  S
C1185      N1187   1.157       .  T
C1186      N1188   1.157       .  T
C1189      C1190   1.407       .  A
C1189      C1194   1.419       .  A
C1190      C1191   1.402       .  A
C1190      H1195   1.084       .  S
C1191      C1192   1.415       .  A
C1191      C1198   1.443       .  S
C1192      C1193   1.405       .  A
C1193      C1194   1.396       .  A
C1193      H1196   1.084       .  S
C1194      C1197   1.446       .  S
C1197      N1199   1.157       .  T
C1198      N1200   1.157       .  T
C1201      C1202   1.404       .  A
C1201      C1206   1.417       .  A
C1202      C1203   1.399   1_545  A
C1202      H1207   1.085       .  S
C1203      C1204   1.419       .  A
C1203      C1210   1.446       .  S
C1204      C1205   1.409       .  A
C1205      C1206   1.412   1_565  A
C1205      H1208   1.084       .  S
C1206      C1209   1.443       .  S
C1209      N1211   1.157       .  T
C1210      N1212   1.158       .  T
C1213      C1214   1.409       .  A
C1213      C1218   1.417       .  A
C1214      C1215   1.404       .  A
C1214      H1219   1.084       .  S
C1215      C1216   1.415       .  A
C1215      C1222   1.444       .  S
C1216      C1217   1.407       .  A
C1217      C1218   1.395       .  A
C1217      H1220   1.085       .  S
C1218      C1221   1.445       .  S
C1221      N1223   1.157       .  T
C1222      N1224   1.157       .  T
C1225      C1226   1.401       .  A
C1225      C1230   1.413       .  A
C1226      C1227   1.396   1_545  A
C1226      H1231   1.085       .  S
C1227      C1228   1.416       .  A
C1227      C1234   1.445       .  S
C1228      C1229   1.407       .  A
C1229      C1230   1.409   1_565  A
C1229      H1232   1.084       .  S
C1230      C1233   1.443       .  S
C1233      N1235   1.157       .  T
C1234      N1236   1.157       .  T
C1237      C1238   1.409       .  A
C1237      C1242   1.414       .  A
C1238      C1239   1.414       .  A
C1238      H1243   1.084       .  S
C1239      C1240   1.413       .  A
C1239      C1246   1.442       .  S
C1240      C1241   1.399       .  A
C1241      C1242   1.386       .  A
C1241      H1244   1.087       .  S
C1242      C1245   1.445       .  S
C1245      N1247   1.157       .  T
C1246      N1248   1.157       .  T
C1249      C1250   1.403       .  A
C1249      C1254   1.414       .  A
C1250      C1251   1.405       .  A
C1250      H1255   1.085       .  S
C1251      C1252   1.419       .  A
C1251      C1258   1.443       .  S
C1252      C1253   1.405       .  A
C1253      C1254   1.392       .  A
C1253      H1256   1.085       .  S
C1254      C1257   1.445       .  S
C1257      N1259   1.157       .  T
C1258      N1260   1.157       .  T
C1261      C1262   1.401       .  A
C1261      C1266   1.415       .  A
C1262      C1263   1.402       .  A
C1262      H1267   1.085       .  S
C1263      C1264   1.415       .  A
C1263      C1270   1.445       .  S
C1264      C1265   1.404       .  A
C1265      C1266   1.409       .  A
C1265      H1268   1.085       .  S
C1266      C1269   1.444       .  S
C1269      N1271   1.157       .  T
C1270      N1272   1.157       .  T
C1273      C1274   1.402       .  A
C1273      C1278   1.417       .  A
C1274      C1275   1.406       .  A
C1274      H1279   1.085       .  S
C1275      C1276   1.415       .  A
C1275      C1282   1.444       .  S
C1276      C1277   1.402       .  A
C1277      C1278   1.405       .  A
C1277      H1280   1.085       .  S
C1278      C1281   1.445       .  S
C1281      N1283   1.157       .  T
C1282      N1284   1.157       .  T
C1285      C1286   1.403       .  A
C1285      C1290   1.414       .  A
C1286      C1287   1.397       .  A
C1286      H1291   1.085       .  S
C1287      C1288   1.417       .  A
C1287      C1294   1.446       .  S
C1288      C1289   1.409       .  A
C1289      C1290   1.410       .  A
C1289      H1292   1.084       .  S
C1290      C1293   1.443       .  S
C1293      N1295   1.157       .  T
C1294      N1296   1.157       .  T
C1297      C1298   1.406       .  A
C1297      C1302   1.413       .  A
C1298      C1299   1.409       .  A
C1298      H1303   1.085       .  S
C1299      C1300   1.410       .  A
C1299      C1306   1.442       .  S
C1300      C1301   1.406       .  A
C1301      C1302   1.407       .  A
C1301      H1304   1.085       .  S
C1302      C1305   1.444       .  S
C1305      N1307   1.157       .  T
C1306      N1308   1.157       .  T
C1309      C1310   1.403       .  A
C1309      C1314   1.414       .  A
C1310      C1311   1.407       .  A
C1310      H1315   1.085       .  S
C1311      C1312   1.413       .  A
C1311      C1318   1.445       .  S
C1312      C1313   1.402       .  A
C1313      C1314   1.401       .  A
C1313      H1316   1.085       .  S
C1314      C1317   1.446       .  S
C1317      N1319   1.157       .  T
C1318      N1320   1.157       .  T
C1321      C1322   1.413       .  A
C1321      C1326   1.417       .  A
C1322      C1323   1.406       .  A
C1322      H1327   1.084       .  S
C1323      C1324   1.407       .  A
C1323      C1330   1.443       .  S
C1324      C1325   1.402       .  A
C1325      C1326   1.393       .  A
C1325      H1328   1.086       .  S
C1326      C1329   1.445       .  S
C1329      N1331   1.157       .  T
C1330      N1332   1.157       .  T
C1333      C1334   1.406       .  A
C1333      C1338   1.415       .  A
C1334      C1335   1.401       .  A
C1334      H1339   1.085       .  S
C1335      C1336   1.415       .  A
C1335      C1342   1.445       .  S
C1336      C1337   1.408       .  A
C1337      C1338   1.411       .  A
C1337      H1340   1.084       .  S
C1338      C1341   1.443       .  S
C1341      N1343   1.157       .  T
C1342      N1344   1.157       .  T
C1345      C1346   1.401       .  A
C1345      C1350   1.415       .  A
C1346      C1347   1.404       .  A
C1346      H1351   1.085       .  S
C1347      C1348   1.414       .  A
C1347      C1354   1.443       .  S
C1348      C1349   1.403       .  A
C1349      C1350   1.406       .  A
C1349      H1352   1.085       .  S
C1350      C1353   1.445       .  S
C1353      N1355   1.157       .  T
C1354      N1356   1.157       .  T
C1357      C1358   1.405       .  A
C1357      C1362   1.413       .  A
C1358      C1359   1.410       .  A
C1358      H1363   1.085       .  S
C1359      C1360   1.415       .  A
C1359      C1366   1.444       .  S
C1360      C1361   1.404       .  A
C1361      C1362   1.406       .  A
C1361      H1364   1.085       .  S
C1362      C1365   1.443       .  S
C1365      N1367   1.157       .  T
C1366      N1368   1.157       .  T
C1369      C1370   1.409       .  A
C1369      C1374   1.418       .  A
C1370      C1371   1.404       .  A
C1370      H1375   1.084       .  S
C1371      C1372   1.415       .  A
C1371      C1378   1.444       .  S
C1372      C1373   1.406       .  A
C1373      C1374   1.393       .  A
C1373      H1376   1.085       .  S
C1374      C1377   1.445       .  S
C1377      N1379   1.157       .  T
C1378      N1380   1.157       .  T
C1381      C1382   1.409       .  A
C1381      C1386   1.412       .  A
C1382      C1383   1.413       .  A
C1382      H1387   1.084       .  S
C1383      C1384   1.411       .  A
C1383      C1390   1.442       .  S
C1384      C1385   1.399       .  A
C1385      C1386   1.390       .  A
C1385      H1388   1.086       .  S
C1386      C1389   1.444       .  S
C1389      N1391   1.156       .  T
C1390      N1392   1.157       .  T
C1393      C1394   1.408       .  A
C1393      C1398   1.416       .  A
C1394      C1395   1.410       .  A
C1394      H1399   1.086       .  S
C1395      C1396   1.414       .  A
C1395      C1402   1.443       .  S
C1396      C1397   1.403       .  A
C1397      C1398   1.396       .  A
C1397      H1400   1.087       .  S
C1398      C1401   1.446       .  S
C1401      N1403   1.157       .  T
C1402      N1404   1.157       .  T
C1405      C1406   1.405       .  A
C1405      C1410   1.416       .  A
C1406      C1407   1.408       .  A
C1406      H1411   1.084       .  S
C1407      C1408   1.418       .  A
C1407      C1414   1.443       .  S
C1408      C1409   1.405       .  A
C1409      C1410   1.392       .  A
C1409      H1412   1.085       .  S
C1410      C1413   1.446       .  S
C1413      N1415   1.157       .  T
C1414      N1416   1.157       .  T
C1417      C1418   1.409       .  A
C1417      C1422   1.417       .  A
C1418      C1419   1.399       .  A
C1418      H1423   1.085       .  S
C1419      C1420   1.416       .  A
C1419      C1426   1.446       .  S
C1420      C1421   1.407       .  A
C1421      C1422   1.407       .  A
C1421      H1424   1.085       .  S
C1422      C1425   1.443       .  S
C1425      N1427   1.157       .  T
C1426      N1428   1.158       .  T
C1429      C1430   1.407       .  A
C1429      C1434   1.416       .  A
C1430      C1431   1.404       .  A
C1430      H1435   1.085       .  S
C1431      C1432   1.411       .  A
C1431      C1438   1.443       .  S
C1432      C1433   1.399       .  A
C1433      C1434   1.391       .  A
C1433      H1436   1.086       .  S
C1434      C1437   1.443       .  S
C1437      N1439   1.156       .  T
C1438      N1440   1.157       .  T
C1441      C1442   1.410       .  A
C1441      C1446   1.418       .  A
C1442      C1443   1.402       .  A
C1442      H1447   1.084       .  S
C1443      C1444   1.410       .  A
C1443      C1450   1.444       .  S
C1444      C1445   1.401       .  A
C1445      C1446   1.393       .  A
C1445      H1448   1.086       .  S
C1446      C1449   1.443       .  S
C1449      N1451   1.156       .  T
C1450      N1452   1.157       .  T
C1453      C1454   1.408       .  A
C1453      C1458   1.408       .  A
C1454      C1455   1.408       .  A
C1454      H1459   1.085       .  S
C1455      C1456   1.409       .  A
C1455      C1462   1.444       .  S
C1456      C1457   1.407       .  A
C1457      C1458   1.401       .  A
C1457      H1460   1.085       .  S
C1458      C1461   1.444       .  S
C1461      N1463   1.157       .  T
C1462      N1464   1.157       .  T
C1465      C1466   1.402       .  A
C1465      C1470   1.413       .  A
C1466      C1467   1.408       .  A
C1466      H1471   1.084       .  S
C1467      C1468   1.414       .  A
C1467      C1474   1.445       .  S
C1468      C1469   1.401       .  A
C1469      C1470   1.404       .  A
C1469      H1472   1.085       .  S
C1470      C1473   1.445       .  S
C1473      N1475   1.157       .  T
C1474      N1476   1.157       .  T
C1477      C1478   1.408       .  A
C1477      C1482   1.414       .  A
C1478      C1479   1.407   1_455  A
C1478      H1483   1.085       .  S
C1479      C1480   1.412       .  A
C1479      C1486   1.443       .  S
C1480      C1481   1.404       .  A
C1481      C1482   1.400   1_655  A
C1481      H1484   1.085       .  S
C1482      C1485   1.445       .  S
C1485      N1487   1.157       .  T
C1486      N1488   1.157       .  T
C1489      C1490   1.403       .  A
C1489      C1494   1.413       .  A
C1490      C1491   1.397       .  A
C1490      H1495   1.085       .  S
C1491      C1492   1.415       .  A
C1491      C1498   1.444       .  S
C1492      C1493   1.409       .  A
C1493      C1494   1.408       .  A
C1493      H1496   1.084       .  S
C1494      C1497   1.444       .  S
C1497      N1499   1.157       .  T
C1498      N1500   1.157       .  T
C1501      C1502   1.403       .  A
C1501      C1506   1.414       .  A
C1502      C1503   1.405       .  A
C1502      H1507   1.085       .  S
C1503      C1504   1.413       .  A
C1503      C1510   1.444       .  S
C1504      C1505   1.402       .  A
C1505      C1506   1.407       .  A
C1505      H1508   1.082       .  S
C1506      C1509   1.445       .  S
C1509      N1511   1.157       .  T
C1510      N1512   1.157       .  T
C1513      C1514   1.404       .  A
C1513      C1518   1.408       .  A
C1514      C1515   1.398       .  A
C1514      H1519   1.086       .  S
C1515      C1516   1.408       .  A
C1515      C1522   1.443       .  S
C1516      C1517   1.408       .  A
C1517      C1518   1.411       .  A
C1517      H1520   1.084       .  S
C1518      C1521   1.441       .  S
C1521      N1523   1.157       .  T
C1522      N1524   1.156       .  T
C1525      C1526   1.407       .  A
C1525      C1530   1.418       .  A
C1526      C1527   1.414   1_655  A
C1526      H1531   1.084       .  S
C1527      C1528   1.421       .  A
C1527      C1534   1.443       .  S
C1528      C1529   1.405       .  A
C1529      C1530   1.401   1_455  A
C1529      H1532   1.085       .  S
C1530      C1533   1.445       .  S
C1533      N1535   1.157       .  T
C1534      N1536   1.157       .  T
C1537      C1538   1.404       .  A
C1537      C1542   1.412       .  A
C1538      C1539   1.395       .  A
C1538      H1543   1.086       .  S
C1539      C1540   1.410       .  A
C1539      C1546   1.444       .  S
C1540      C1541   1.404       .  A
C1541      C1542   1.401       .  A
C1541      H1544   1.085       .  S
C1542      C1545   1.443       .  S
C1545      N1547   1.157       .  T
C1546      N1548   1.157       .  T
C1549      C1550   1.408       .  A
C1549      C1554   1.417       .  A
C1550      C1551   1.406       .  A
C1550      H1555   1.085       .  S
C1551      C1552   1.413       .  A
C1551      C1558   1.443       .  S
C1552      C1553   1.402       .  A
C1553      C1554   1.392       .  A
C1553      H1556   1.086       .  S
C1554      C1557   1.445       .  S
C1557      N1559   1.157       .  T
C1558      N1560   1.157       .  T
C1561      C1562   1.403       .  A
C1561      C1566   1.416       .  A
C1562      C1563   1.408       .  A
C1562      H1567   1.085       .  S
C1563      C1564   1.416       .  A
C1563      C1570   1.445       .  S
C1564      C1565   1.404       .  A
C1565      C1566   1.409       .  A
C1565      H1568   1.085       .  S
C1566      C1569   1.445       .  S
C1569      N1571   1.157       .  T
C1570      N1572   1.157       .  T
C1573      C1574   1.404       .  A
C1573      C1578   1.409       .  A
C1574      C1575   1.404       .  A
C1574      H1579   1.085       .  S
C1575      C1576   1.410       .  A
C1575      C1582   1.441       .  S
C1576      C1577   1.409       .  A
C1577      C1578   1.409       .  A
C1577      H1580   1.085       .  S
C1578      C1581   1.444       .  S
C1581      N1583   1.157       .  T
C1582      N1584   1.156       .  T
C1585      C1586   1.409       .  A
C1585      C1590   1.419       .  A
C1586      C1587   1.409       .  A
C1586      H1591   1.084       .  S
C1587      C1588   1.416       .  A
C1587      C1594   1.443       .  S
C1588      C1589   1.404       .  A
C1589      C1590   1.396       .  A
C1589      H1592   1.085       .  S
C1590      C1593   1.446       .  S
C1593      N1595   1.158       .  T
C1594      N1596   1.157       .  T
C1597      C1598   1.406       .  A
C1597      C1602   1.412       .  A
C1598      C1599   1.408       .  A
C1598      H1603   1.085       .  S
C1599      C1600   1.417       .  A
C1599      C1606   1.443       .  S
C1600      C1601   1.406       .  A
C1601      C1602   1.397       .  A
C1601      H1604   1.085       .  S
C1602      C1605   1.445       .  S
C1605      N1607   1.157       .  T
C1606      N1608   1.157       .  T
C1609      C1610   1.405       .  A
C1609      C1614   1.412       .  A
C1610      C1611   1.406       .  A
C1610      H1615   1.085       .  S
C1611      C1612   1.412       .  A
C1611      C1618   1.444       .  S
C1612      C1613   1.403       .  A
C1613      C1614   1.400       .  A
C1613      H1616   1.085       .  S
C1614      C1617   1.445       .  S
C1617      N1619   1.157       .  T
C1618      N1620   1.157       .  T
C1621      C1622   1.410       .  A
C1621      C1626   1.415       .  A
C1622      C1623   1.406       .  A
C1622      H1627   1.084       .  S
C1623      C1624   1.409       .  A
C1623      C1630   1.443       .  S
C1624      C1625   1.401       .  A
C1625      C1626   1.395       .  A
C1625      H1628   1.086       .  S
C1626      C1629   1.444       .  S
C1629      N1631   1.157       .  T
C1630      N1632   1.157       .  T
C1633      C1634   1.404       .  A
C1633      C1638   1.416       .  A
C1634      C1635   1.397   1_565  A
C1634      H1639   1.085       .  S
C1635      C1636   1.414       .  A
C1635      C1642   1.446       .  S
C1636      C1637   1.408       .  A
C1637      C1638   1.413   1_545  A
C1637      H1640   1.084       .  S
C1638      C1641   1.443       .  S
C1641      N1643   1.157       .  T
C1642      N1644   1.157       .  T
C1645      C1646   1.412       .  A
C1645      C1650   1.422       .  A
C1646      C1647   1.420       .  A
C1646      H1651   1.084       .  S
C1647      C1648   1.413       .  A
C1647      C1654   1.441       .  S
C1648      C1649   1.396       .  A
C1649      C1650   1.388       .  A
C1649      H1652   1.088       .  S
C1650      C1653   1.446       .  S
C1653      N1655   1.158       .  T
C1654      N1656   1.157       .  T
C1657      C1658   1.407       .  A
C1657      C1662   1.416       .  A
C1658      C1659   1.410       .  A
C1658      H1663   1.084       .  S
C1659      C1660   1.411       .  A
C1659      C1666   1.444       .  S
C1660      C1661   1.400       .  A
C1661      C1662   1.399       .  A
C1661      H1664   1.086       .  S
C1662      C1665   1.445       .  S
C1665      N1667   1.157       .  T
C1666      N1668   1.157       .  T
C1669      C1670   1.404       .  A
C1669      C1674   1.414       .  A
C1670      C1671   1.401   1_655  A
C1670      H1675   1.085       .  S
C1671      C1672   1.418       .  A
C1671      C1678   1.445       .  S
C1672      C1673   1.409       .  A
C1673      C1674   1.411   1_455  A
C1673      H1676   1.084       .  S
C1674      C1677   1.443       .  S
C1677      N1679   1.157       .  T
C1678      N1680   1.157       .  T
C1681      C1682   1.405       .  A
C1681      C1686   1.413       .  A
C1682      C1683   1.406   1_545  A
C1682      H1687   1.085       .  S
C1683      C1684   1.414       .  A
C1683      C1690   1.443       .  S
C1684      C1685   1.403       .  A
C1685      C1686   1.397   1_565  A
C1685      H1688   1.085       .  S
C1686      C1689   1.445       .  S
C1689      N1691   1.157       .  T
C1690      N1692   1.157       .  T
C1693      C1694   1.407       .  A
C1693      C1698   1.411       .  A
C1694      C1695   1.404       .  A
C1694      H1699   1.085       .  S
C1695      C1696   1.416       .  A
C1695      C1702   1.444       .  S
C1696      C1697   1.404       .  A
C1697      C1698   1.393       .  A
C1697      H1700   1.083       .  S
C1698      C1701   1.443       .  S
C1701      N1703   1.157       .  T
C1702      N1704   1.157       .  T
C1705      C1706   1.403       .  A
C1705      C1710   1.413       .  A
C1706      C1707   1.406       .  A
C1706      H1711   1.085       .  S
C1707      C1708   1.413       .  A
C1707      C1714   1.444       .  S
C1708      C1709   1.402       .  A
C1709      C1710   1.406       .  A
C1709      H1712   1.085       .  S
C1710      C1713   1.444       .  S
C1713      N1715   1.157       .  T
C1714      N1716   1.157       .  T
C1717      C1718   1.406       .  A
C1717      C1722   1.418       .  A
C1718      C1719   1.401       .  A
C1718      H1723   1.085       .  S
C1719      C1720   1.421       .  A
C1719      C1726   1.446       .  S
C1720      C1721   1.411       .  A
C1721      C1722   1.414       .  A
C1721      H1724   1.084       .  S
C1722      C1725   1.443       .  S
C1725      N1727   1.157       .  T
C1726      N1728   1.158       .  T
C1729      C1730   1.408       .  A
C1729      C1734   1.415       .  A
C1730      C1731   1.410       .  A
C1730      H1735   1.084       .  S
C1731      C1732   1.413       .  A
C1731      C1738   1.443       .  S
C1732      C1733   1.400       .  A
C1733      C1734   1.388       .  A
C1733      H1736   1.086       .  S
C1734      C1737   1.445       .  S
C1737      N1739   1.157       .  T
C1738      N1740   1.157       .  T
C1741      C1742   1.404       .  A
C1741      C1746   1.415       .  A
C1742      C1743   1.404       .  A
C1742      H1747   1.085       .  S
C1743      C1744   1.412       .  A
C1743      C1750   1.445       .  S
C1744      C1745   1.404       .  A
C1745      C1746   1.410       .  A
C1745      H1748   1.084       .  S
C1746      C1749   1.444       .  S
C1749      N1751   1.157       .  T
C1750      N1752   1.157       .  T
C1753      C1754   1.404       .  A
C1753      C1758   1.415       .  A
C1754      C1755   1.391       .  A
C1754      H1759   1.085       .  S
C1755      C1756   1.417       .  A
C1755      C1762   1.444       .  S
C1756      C1757   1.409       .  A
C1757      C1758   1.405       .  A
C1757      H1760   1.084       .  S
C1758      C1761   1.443       .  S
C1761      N1763   1.157       .  T
C1762      N1764   1.156       .  T
C1765      C1766   1.405       .  A
C1765      C1770   1.413       .  A
C1766      C1767   1.410   1_655  A
C1766      H1771   1.085       .  S
C1767      C1768   1.419       .  A
C1767      C1774   1.444       .  S
C1768      C1769   1.405       .  A
C1769      C1770   1.398   1_455  A
C1769      H1772   1.085       .  S
C1770      C1773   1.446       .  S
C1773      N1775   1.157       .  T
C1774      N1776   1.157       .  T
C1777      C1778   1.399       .  A
C1777      C1782   1.411       .  A
C1778      C1779   1.390       .  A
C1778      H1783   1.086       .  S
C1779      C1780   1.415       .  A
C1779      C1786   1.445       .  S
C1780      C1781   1.408       .  A
C1781      C1782   1.410       .  A
C1781      H1784   1.083       .  S
C1782      C1785   1.442       .  S
C1785      N1787   1.157       .  T
C1786      N1788   1.157       .  T
C1789      C1790   1.409       .  A
C1789      C1794   1.418       .  A
C1790      C1791   1.403       .  A
C1790      H1795   1.084       .  S
C1791      C1792   1.411       .  A
C1791      C1798   1.444       .  S
C1792      C1793   1.400       .  A
C1793      C1794   1.392       .  A
C1793      H1796   1.085       .  S
C1794      C1797   1.443       .  S
C1797      N1799   1.156       .  T
C1798      N1800   1.157       .  T
C1801      C1802   1.409       .  A
C1801      C1806   1.410       .  A
C1802      C1803   1.414       .  A
C1802      H1807   1.085       .  S
C1803      C1804   1.412       .  A
C1803      C1810   1.443       .  S
C1804      C1805   1.405       .  A
C1805      C1806   1.403       .  A
C1805      H1808   1.085       .  S
C1806      C1809   1.442       .  S
C1809      N1811   1.157       .  T
C1810      N1812   1.157       .  T
C1813      C1814   1.401       .  A
C1813      C1818   1.414       .  A
C1814      C1815   1.403       .  A
C1814      H1819   1.082       .  S
C1815      C1816   1.413       .  A
C1815      C1822   1.445       .  S
C1816      C1817   1.402       .  A
C1817      C1818   1.404       .  A
C1817      H1820   1.085       .  S
C1818      C1821   1.444       .  S
C1821      N1823   1.157       .  T
C1822      N1824   1.157       .  T
C1825      C1826   1.407       .  A
C1825      C1830   1.417       .  A
C1826      C1827   1.410       .  A
C1826      H1831   1.085       .  S
C1827      C1828   1.417       .  A
C1827      C1834   1.443       .  S
C1828      C1829   1.406       .  A
C1829      C1830   1.402       .  A
C1829      H1832   1.085       .  S
C1830      C1833   1.445       .  S
C1833      N1835   1.157       .  T
C1834      N1836   1.157       .  T
C1837      C1838   1.404       .  A
C1837      C1842   1.413       .  A
C1838      C1839   1.395       .  A
C1838      H1843   1.086       .  S
C1839      C1840   1.416       .  A
C1839      C1846   1.445       .  S
C1840      C1841   1.407       .  A
C1841      C1842   1.403       .  A
C1841      H1844   1.085       .  S
C1842      C1845   1.444       .  S
C1845      N1847   1.157       .  T
C1846      N1848   1.157       .  T
C1849      C1850   1.405       .  A
C1849      C1854   1.415       .  A
C1850      C1851   1.400       .  A
C1850      H1855   1.085       .  S
C1851      C1852   1.415       .  A
C1851      C1858   1.445       .  S
C1852      C1853   1.407       .  A
C1853      C1854   1.407       .  A
C1853      H1856   1.084       .  S
C1854      C1857   1.443       .  S
C1857      N1859   1.157       .  T
C1858      N1860   1.157       .  T
C1861      C1862   1.402       .  A
C1861      C1866   1.416       .  A
C1862      C1863   1.393       .  A
C1862      H1867   1.086       .  S
C1863      C1864   1.418       .  A
C1863      C1870   1.445       .  S
C1864      C1865   1.407       .  A
C1865      C1866   1.409       .  A
C1865      H1868   1.084       .  S
C1866      C1869   1.443       .  S
C1869      N1871   1.157       .  T
C1870      N1872   1.157       .  T
C1873      C1874   1.402       .  A
C1873      C1878   1.412       .  A
C1874      C1875   1.393       .  A
C1874      H1879   1.086       .  S
C1875      C1876   1.416       .  A
C1875      C1882   1.444       .  S
C1876      C1877   1.410       .  A
C1877      C1878   1.409       .  A
C1877      H1880   1.084       .  S
C1878      C1881   1.443       .  S
C1881      N1883   1.157       .  T
C1882      N1884   1.157       .  T
C1885      C1886   1.407       .  A
C1885      C1890   1.420       .  A
C1886      C1887   1.409   1_556  A
C1886      H1891   1.084       .  S
C1887      C1888   1.420       .  A
C1887      C1894   1.443       .  S
C1888      C1889   1.405       .  A
C1889      C1890   1.398   1_554  A
C1889      H1892   1.085       .  S
C1890      C1893   1.446       .  S
C1893      N1895   1.158       .  T
C1894      N1896   1.157       .  T
C1897      C1898   1.407       .  A
C1897      C1902   1.410       .  A
C1898      C1899   1.404       .  A
C1898      H1903   1.085       .  S
C1899      C1900   1.409       .  A
C1899      C1906   1.444       .  S
C1900      C1901   1.408       .  A
C1901      C1902   1.412       .  A
C1901      H1904   1.085       .  S
C1902      C1905   1.440       .  S
C1905      N1907   1.156       .  T
C1906      N1908   1.157       .  T
C1909      C1910   1.405       .  A
C1909      C1914   1.407       .  A
C1910      C1911   1.405       .  A
C1910      H1915   1.085       .  S
C1911      C1912   1.409       .  A
C1911      C1918   1.440       .  S
C1912      C1913   1.406       .  A
C1913      C1914   1.402       .  A
C1913      H1916   1.085       .  S
C1914      C1917   1.444       .  S
C1917      N1919   1.157       .  T
C1918      N1920   1.156       .  T
C1921      C1922   1.406       .  A
C1921      C1926   1.416       .  A
C1922      C1923   1.398   1_556  A
C1922      H1927   1.085       .  S
C1923      C1924   1.415       .  A
C1923      C1930   1.446       .  S
C1924      C1925   1.406       .  A
C1925      C1926   1.408   1_554  A
C1925      H1928   1.085       .  S
C1926      C1929   1.443       .  S
C1929      N1931   1.157       .  T
C1930      N1932   1.157       .  T
C1933      C1934   1.403       .  A
C1933      C1938   1.414       .  A
C1934      C1935   1.407       .  A
C1934      H1939   1.085       .  S
C1935      C1936   1.414       .  A
C1935      C1942   1.444       .  S
C1936      C1937   1.402       .  A
C1937      C1938   1.404       .  A
C1937      H1940   1.085       .  S
C1938      C1941   1.445       .  S
C1941      N1943   1.157       .  T
C1942      N1944   1.157       .  T
C1945      C1946   1.404       .  A
C1945      C1950   1.415       .  A
C1946      C1947   1.407       .  A
C1946      H1951   1.085       .  S
C1947      C1948   1.413       .  A
C1947      C1954   1.445       .  S
C1948      C1949   1.403       .  A
C1949      C1950   1.409       .  A
C1949      H1952   1.084       .  S
C1950      C1953   1.445       .  S
C1953      N1955   1.157       .  T
C1954      N1956   1.157       .  T
C1957      C1958   1.410       .  A
C1957      C1962   1.416       .  A
C1958      C1959   1.405       .  A
C1958      H1963   1.084       .  S
C1959      C1960   1.412       .  A
C1959      C1966   1.443       .  S
C1960      C1961   1.404       .  A
C1961      C1962   1.394       .  A
C1961      H1964   1.086       .  S
C1962      C1965   1.443       .  S
C1965      N1967   1.156       .  T
C1966      N1968   1.157       .  T
C1969      C1970   1.404       .  A
C1969      C1974   1.416       .  A
C1970      C1971   1.410       .  A
C1970      H1975   1.084       .  S
C1971      C1972   1.414       .  A
C1971      C1978   1.444       .  S
C1972      C1973   1.401       .  A
C1973      C1974   1.402       .  A
C1973      H1976   1.085       .  S
C1974      C1977   1.445       .  S
C1977      N1979   1.157       .  T
C1978      N1980   1.157       .  T
C1981      C1982   1.402       .  A
C1981      C1986   1.415       .  A
C1982      C1983   1.386       .  A
C1982      H1987   1.086       .  S
C1983      C1984   1.414       .  A
C1983      C1990   1.448       .  S
C1984      C1985   1.408       .  A
C1985      C1986   1.414       .  A
C1985      H1988   1.084       .  S
C1986      C1989   1.442       .  S
C1989      N1991   1.157       .  T
C1990      N1992   1.157       .  T
C1993      C1994   1.403       .  A
C1993      C1998   1.415       .  A
C1994      C1995   1.406       .  A
C1994      H1999   1.085       .  S
C1995      C1996   1.413       .  A
C1995      C2002   1.445       .  S
C1996      C1997   1.403       .  A
C1997      C1998   1.410       .  A
C1997      H2000   1.084       .  S
C1998      C2001   1.445       .  S
C2001      N2003   1.157       .  T
C2002      N2004   1.157       .  T
C2005      C2006   1.410       .  A
C2005      C2010   1.418       .  A
C2006      C2007   1.401       .  A
C2006      H2011   1.084       .  S
C2007      C2008   1.409       .  A
C2007      C2014   1.444       .  S
C2008      C2009   1.401       .  A
C2009      C2010   1.393       .  A
C2009      H2012   1.086       .  S
C2010      C2013   1.443       .  S
C2013      N2015   1.156       .  T
C2014      N2016   1.157       .  T
C2017      C2018   1.406       .  A
C2017      C2022   1.414       .  A
C2018      C2019   1.409       .  A
C2018      H2023   1.085       .  S
C2019      C2020   1.416       .  A
C2019      C2026   1.444       .  S
C2020      C2021   1.404       .  A
C2021      C2022   1.400       .  A
C2021      H2024   1.085       .  S
C2022      C2025   1.445       .  S
C2025      N2027   1.157       .  T
C2026      N2028   1.157       .  T
C2029      C2030   1.408       .  A
C2029      C2034   1.417       .  A
C2030      C2031   1.412       .  A
C2030      H2035   1.084       .  S
C2031      C2032   1.418       .  A
C2031      C2038   1.443       .  S
C2032      C2033   1.406       .  A
C2033      C2034   1.402       .  A
C2033      H2036   1.085       .  S
C2034      C2037   1.445       .  S
C2037      N2039   1.157       .  T
C2038      N2040   1.157       .  T
C2041      C2042   1.407       .  A
C2041      C2046   1.413       .  A
C2042      C2043   1.410       .  A
C2042      H2047   1.084       .  S
C2043      C2044   1.417       .  A
C2043      C2050   1.443       .  S
C2044      C2045   1.408       .  A
C2045      C2046   1.397       .  A
C2045      H2048   1.085       .  S
C2046      C2049   1.446       .  S
C2049      N2051   1.157       .  T
C2050      N2052   1.157       .  T
C2053      C2054   1.404       .  A
C2053      C2058   1.414       .  A
C2054      C2055   1.394       .  A
C2054      H2059   1.086       .  S
C2055      C2056   1.414       .  A
C2055      C2062   1.445       .  S
C2056      C2057   1.407       .  A
C2057      C2058   1.405       .  A
C2057      H2060   1.084       .  S
C2058      C2061   1.443       .  S
C2061      N2063   1.157       .  T
C2062      N2064   1.157       .  T
C2065      C2066   1.405       .  A
C2065      C2070   1.419       .  A
C2066      C2067   1.400       .  A
C2066      H2071   1.085       .  S
C2067      C2068   1.416       .  A
C2067      C2074   1.445       .  S
C2068      C2069   1.406       .  A
C2069      C2070   1.410       .  A
C2069      H2072   1.085       .  S
C2070      C2073   1.444       .  S
C2073      N2075   1.157       .  T
C2074      N2076   1.157       .  T
C2077      C2078   1.402       .  A
C2077      C2082   1.413       .  A
C2078      C2079   1.393       .  A
C2078      H2083   1.086       .  S
C2079      C2080   1.417       .  A
C2079      C2086   1.445       .  S
C2080      C2081   1.408       .  A
C2081      C2082   1.408       .  A
C2081      H2084   1.084       .  S
C2082      C2085   1.443       .  S
C2085      N2087   1.157       .  T
C2086      N2088   1.157       .  T
C2089      C2090   1.404       .  A
C2089      C2094   1.416       .  A
C2090      C2091   1.397       .  A
C2090      H2095   1.086       .  S
C2091      C2092   1.417       .  A
C2091      C2098   1.443       .  S
C2092      C2093   1.408       .  A
C2093      C2094   1.407       .  A
C2093      H2096   1.085       .  S
C2094      C2097   1.444       .  S
C2097      N2099   1.157       .  T
C2098      N2100   1.157       .  T
C2101      C2102   1.408       .  A
C2101      C2106   1.419       .  A
C2102      C2103   1.399   1_655  A
C2102      H2107   1.085       .  S
C2103      C2104   1.414       .  A
C2103      C2110   1.446       .  S
C2104      C2105   1.407       .  A
C2105      C2106   1.413   1_455  A
C2105      H2108   1.084       .  S
C2106      C2109   1.443       .  S
C2109      N2111   1.157       .  T
C2110      N2112   1.157       .  T
C2113      C2114   1.402       .  A
C2113      C2118   1.410       .  A
C2114      C2115   1.399       .  A
C2114      H2119   1.086       .  S
C2115      C2116   1.410       .  A
C2115      C2122   1.441       .  S
C2116      C2117   1.409       .  A
C2117      C2118   1.410       .  A
C2117      H2120   1.085       .  S
C2118      C2121   1.443       .  S
C2121      N2123   1.157       .  T
C2122      N2124   1.156       .  T
C2125      C2126   1.409       .  A
C2125      C2130   1.408       .  A
C2126      C2127   1.410       .  A
C2126      H2131   1.084       .  S
C2127      C2128   1.408       .  A
C2127      C2134   1.441       .  S
C2128      C2129   1.407       .  A
C2129      C2130   1.404       .  A
C2129      H2132   1.085       .  S
C2130      C2133   1.444       .  S
C2133      N2135   1.157       .  T
C2134      N2136   1.157       .  T
C2137      C2138   1.407       .  A
C2137      C2142   1.414       .  A
C2138      C2139   1.400   1_556  A
C2138      H2143   1.085       .  S
C2139      C2140   1.414       .  A
C2139      C2146   1.445       .  S
C2140      C2141   1.407       .  A
C2141      C2142   1.407   1_554  A
C2141      H2144   1.085       .  S
C2142      C2145   1.443       .  S
C2145      N2147   1.157       .  T
C2146      N2148   1.158       .  T
C2149      C2150   1.409       .  A
C2149      C2154   1.418       .  A
C2150      C2151   1.412   1_655  A
C2150      H2155   1.084       .  S
C2151      C2152   1.420       .  A
C2151      C2158   1.443       .  S
C2152      C2153   1.406       .  A
C2153      C2154   1.399   1_455  A
C2153      H2156   1.085       .  S
C2154      C2157   1.445       .  S
C2157      N2159   1.157       .  T
C2158      N2160   1.157       .  T
C2161      C2162   1.402       .  A
C2161      C2166   1.415       .  A
C2162      C2163   1.406       .  A
C2162      H2167   1.085       .  S
C2163      C2164   1.414       .  A
C2163      C2170   1.445       .  S
C2164      C2165   1.403       .  A
C2165      C2166   1.406       .  A
C2165      H2168   1.085       .  S
C2166      C2169   1.445       .  S
C2169      N2171   1.157       .  T
C2170      N2172   1.157       .  T
C2173      C2174   1.402       .  A
C2173      C2178   1.413       .  A
C2174      C2175   1.404       .  A
C2174      H2179   1.085       .  S
C2175      C2176   1.413       .  A
C2175      C2182   1.445       .  S
C2176      C2177   1.402       .  A
C2177      C2178   1.407       .  A
C2177      H2180   1.085       .  S
C2178      C2181   1.445       .  S
C2181      N2183   1.157       .  T
C2182      N2184   1.157       .  T
C2185      C2186   1.403       .  A
C2185      C2190   1.413       .  A
C2186      C2187   1.398       .  A
C2186      H2191   1.086       .  S
C2187      C2188   1.419       .  A
C2187      C2194   1.444       .  S
C2188      C2189   1.408       .  A
C2189      C2190   1.404       .  A
C2189      H2192   1.084       .  S
C2190      C2193   1.444       .  S
C2193      N2195   1.157       .  T
C2194      N2196   1.157       .  T
C2197      C2198   1.406       .  A
C2197      C2202   1.411       .  A
C2198      C2199   1.403   1_556  A
C2198      H2203   1.085       .  S
C2199      C2200   1.414       .  A
C2199      C2206   1.443       .  S
C2200      C2201   1.407       .  A
C2201      C2202   1.393   1_554  A
C2201      H2204   1.085       .  S
C2202      C2205   1.446       .  S
C2205      N2207   1.157       .  T
C2206      N2208   1.157       .  T
C2209      C2210   1.401       .  A
C2209      C2214   1.412       .  A
C2210      C2211   1.393       .  A
C2210      H2215   1.086       .  S
C2211      C2212   1.414       .  A
C2211      C2218   1.442       .  S
C2212      C2213   1.406       .  A
C2213      C2214   1.403       .  A
C2213      H2216   1.085       .  S
C2214      C2217   1.443       .  S
C2217      N2219   1.157       .  T
C2218      N2220   1.156       .  T
C2221      C2222   1.403       .  A
C2221      C2226   1.414       .  A
C2222      C2223   1.393       .  A
C2222      H2227   1.086       .  S
C2223      C2224   1.414       .  A
C2223      C2230   1.444       .  S
C2224      C2225   1.406       .  A
C2225      C2226   1.407       .  A
C2225      H2228   1.085       .  S
C2226      C2229   1.442       .  S
C2229      N2231   1.157       .  T
C2230      N2232   1.157       .  T
C2233      C2234   1.401       .  A
C2233      C2238   1.415       .  A
C2234      C2235   1.406       .  A
C2234      H2239   1.085       .  S
C2235      C2236   1.415       .  A
C2235      C2242   1.444       .  S
C2236      C2237   1.403       .  A
C2237      C2238   1.406       .  A
C2237      H2240   1.085       .  S
C2238      C2241   1.444       .  S
C2241      N2243   1.157       .  T
C2242      N2244   1.157       .  T
C2245      C2246   1.402       .  A
C2245      C2250   1.412       .  A
C2246      C2247   1.406       .  A
C2246      H2251   1.085       .  S
C2247      C2248   1.414       .  A
C2247      C2254   1.445       .  S
C2248      C2249   1.402       .  A
C2249      C2250   1.404       .  A
C2249      H2252   1.084       .  S
C2250      C2253   1.445       .  S
C2253      N2255   1.157       .  T
C2254      N2256   1.157       .  T
C2257      C2258   1.406       .  A
C2257      C2262   1.417       .  A
C2258      C2259   1.408       .  A
C2258      H2263   1.085       .  S
C2259      C2260   1.418       .  A
C2259      C2266   1.443       .  S
C2260      C2261   1.407       .  A
C2261      C2262   1.403       .  A
C2261      H2264   1.085       .  S
C2262      C2265   1.446       .  S
C2265      N2267   1.158       .  T
C2266      N2268   1.157       .  T
C2269      C2270   1.406       .  A
C2269      C2274   1.416       .  A
C2270      C2271   1.397       .  A
C2270      H2275   1.085       .  S
C2271      C2272   1.414       .  A
C2271      C2278   1.446       .  S
C2272      C2273   1.408       .  A
C2273      C2274   1.410       .  A
C2273      H2276   1.084       .  S
C2274      C2277   1.443       .  S
C2277      N2279   1.157       .  T
C2278      N2280   1.157       .  T
C2281      C2282   1.405       .  A
C2281      C2286   1.414       .  A
C2282      C2283   1.408       .  A
C2282      H2287   1.085       .  S
C2283      C2284   1.418       .  A
C2283      C2290   1.443       .  S
C2284      C2285   1.408       .  A
C2285      C2286   1.401       .  A
C2285      H2288   1.085       .  S
C2286      C2289   1.445       .  S
C2289      N2291   1.157       .  T
C2290      N2292   1.157       .  T
C2293      C2294   1.403       .  A
C2293      C2298   1.410       .  A
C2294      C2295   1.390       .  A
C2294      H2299   1.085       .  S
C2295      C2296   1.415       .  A
C2295      C2302   1.445       .  S
C2296      C2297   1.410       .  A
C2297      C2298   1.403       .  A
C2297      H2300   1.084       .  S
C2298      C2301   1.444       .  S
C2301      N2303   1.157       .  T
C2302      N2304   1.157       .  T
C2305      C2306   1.406       .  A
C2305      C2310   1.420       .  A
C2306      C2307   1.397       .  A
C2306      H2311   1.085       .  S
C2307      C2308   1.417       .  A
C2307      C2314   1.445       .  S
C2308      C2309   1.409       .  A
C2309      C2310   1.413       .  A
C2309      H2312   1.084       .  S
C2310      C2313   1.443       .  S
C2313      N2315   1.157       .  T
C2314      N2316   1.157       .  T
C2317      C2318   1.405       .  A
C2317      C2322   1.416       .  A
C2318      C2319   1.397       .  A
C2318      H2323   1.085       .  S
C2319      C2320   1.415       .  A
C2319      C2326   1.443       .  S
C2320      C2321   1.407       .  A
C2321      C2322   1.407       .  A
C2321      H2324   1.085       .  S
C2322      C2325   1.443       .  S
C2325      N2327   1.157       .  T
C2326      N2328   1.157       .  T
C2329      C2330   1.404       .  A
C2329      C2334   1.410       .  A
C2330      C2331   1.393       .  A
C2330      H2335   1.085       .  S
C2331      C2332   1.413       .  A
C2331      C2338   1.446       .  S
C2332      C2333   1.407       .  A
C2333      C2334   1.405       .  A
C2333      H2336   1.085       .  S
C2334      C2337   1.442       .  S
C2337      N2339   1.157       .  T
C2338      N2340   1.157       .  T
C2341      C2342   1.407       .  A
C2341      C2346   1.417       .  A
C2342      C2343   1.402   1_556  A
C2342      H2347   1.085       .  S
C2343      C2344   1.416       .  A
C2343      C2350   1.445       .  S
C2344      C2345   1.408       .  A
C2345      C2346   1.410   1_554  A
C2345      H2348   1.084       .  S
C2346      C2349   1.443       .  S
C2349      N2351   1.157       .  T
C2350      N2352   1.157       .  T
C2353      C2354   1.407       .  A
C2353      C2358   1.409       .  A
C2354      C2355   1.407       .  A
C2354      H2359   1.085       .  S
C2355      C2356   1.409       .  A
C2355      C2362   1.443       .  S
C2356      C2357   1.406       .  A
C2357      C2358   1.402       .  A
C2357      H2360   1.086       .  S
C2358      C2361   1.444       .  S
C2361      N2363   1.157       .  T
C2362      N2364   1.157       .  T
C2365      C2366   1.400       .  A
C2365      C2370   1.413       .  A
C2366      C2367   1.402       .  A
C2366      H2371   1.085       .  S
C2367      C2368   1.416       .  A
C2367      C2374   1.445       .  S
C2368      C2369   1.404       .  A
C2369      C2370   1.410       .  A
C2369      H2372   1.084       .  S
C2370      C2373   1.444       .  S
C2373      N2375   1.157       .  T
C2374      N2376   1.157       .  T
C2377      C2378   1.409       .  A
C2377      C2382   1.417       .  A
C2378      C2379   1.409   1_556  A
C2378      H2383   1.084       .  S
C2379      C2380   1.415       .  A
C2379      C2386   1.443       .  S
C2380      C2381   1.406       .  A
C2381      C2382   1.398   1_554  A
C2381      H2384   1.085       .  S
C2382      C2385   1.446       .  S
C2385      N2387   1.158       .  T
C2386      N2388   1.157       .  T
C2389      C2390   1.405       .  A
C2389      C2394   1.415       .  A
C2390      C2391   1.408   1_565  A
C2390      H2395   1.084       .  S
C2391      C2392   1.419       .  A
C2391      C2398   1.444       .  S
C2392      C2393   1.404       .  A
C2393      C2394   1.399   1_545  A
C2393      H2396   1.085       .  S
C2394      C2397   1.446       .  S
C2397      N2399   1.157       .  T
C2398      N2400   1.157       .  T
C2401      C2402   1.408       .  A
C2401      C2406   1.420       .  A
C2402      C2403   1.406       .  A
C2402      H2407   1.084       .  S
C2403      C2404   1.418       .  A
C2403      C2410   1.443       .  S
C2404      C2405   1.406       .  A
C2405      C2406   1.398       .  A
C2405      H2408   1.085       .  S
C2406      C2409   1.445       .  S
C2409      N2411   1.157       .  T
C2410      N2412   1.157       .  T
C2413      C2414   1.401       .  A
C2413      C2418   1.414       .  A
C2414      C2415   1.402       .  A
C2414      H2419   1.085       .  S
C2415      C2416   1.414       .  A
C2415      C2422   1.445       .  S
C2416      C2417   1.404       .  A
C2417      C2418   1.409       .  A
C2417      H2420   1.085       .  S
C2418      C2421   1.445       .  S
C2421      N2423   1.157       .  T
C2422      N2424   1.157       .  T
C2425      C2426   1.407       .  A
C2425      C2430   1.409       .  A
C2426      C2427   1.403       .  A
C2426      H2431   1.085       .  S
C2427      C2428   1.408       .  A
C2427      C2434   1.443       .  S
C2428      C2429   1.407       .  A
C2429      C2430   1.407       .  A
C2429      H2432   1.085       .  S
C2430      C2433   1.443       .  S
C2433      N2435   1.157       .  T
C2434      N2436   1.157       .  T
C2437      C2438   1.409       .  A
C2437      C2442   1.418       .  A
C2438      C2439   1.412   1_545  A
C2438      H2443   1.084       .  S
C2439      C2440   1.416       .  A
C2439      C2446   1.444       .  S
C2440      C2441   1.404       .  A
C2441      C2442   1.400   1_565  A
C2441      H2444   1.085       .  S
C2442      C2445   1.445       .  S
C2445      N2447   1.157       .  T
C2446      N2448   1.157       .  T
C2449      C2450   1.405       .  A
C2449      C2454   1.414       .  A
C2450      C2451   1.414       .  A
C2450      H2455   1.084       .  S
C2451      C2452   1.415       .  A
C2451      C2458   1.444       .  S
C2452      C2453   1.403       .  A
C2453      C2454   1.404       .  A
C2453      H2456   1.085       .  S
C2454      C2457   1.444       .  S
C2457      N2459   1.157       .  T
C2458      N2460   1.157       .  T
C2461      C2462   1.402       .  A
C2461      C2466   1.413       .  A
C2462      C2463   1.406       .  A
C2462      H2467   1.085       .  S
C2463      C2464   1.414       .  A
C2463      C2470   1.444       .  S
C2464      C2465   1.402       .  A
C2465      C2466   1.402       .  A
C2465      H2468   1.083       .  S
C2466      C2469   1.445       .  S
C2469      N2471   1.157       .  T
C2470      N2472   1.157       .  T
C2473      C2474   1.400       .  A
C2473      C2478   1.408       .  A
C2474      C2475   1.393       .  A
C2474      H2479   1.085       .  S
C2475      C2476   1.416       .  A
C2475      C2482   1.442       .  S
C2476      C2477   1.409       .  A
C2477      C2478   1.404       .  A
C2477      H2480   1.084       .  S
C2478      C2481   1.443       .  S
C2481      N2483   1.157       .  T
C2482      N2484   1.156       .  T
C2485      C2486   1.408       .  A
C2485      C2490   1.414       .  A
C2486      C2487   1.410       .  A
C2486      H2491   1.084       .  S
C2487      C2488   1.412       .  A
C2487      C2494   1.443       .  S
C2488      C2489   1.401       .  A
C2489      C2490   1.392       .  A
C2489      H2492   1.086       .  S
C2490      C2493   1.445       .  S
C2493      N2495   1.157       .  T
C2494      N2496   1.157       .  T
C2497      C2498   1.408       .  A
C2497      C2502   1.416       .  A
C2498      C2499   1.397       .  A
C2498      H2503   1.085       .  S
C2499      C2500   1.415       .  A
C2499      C2506   1.446       .  S
C2500      C2501   1.409       .  A
C2501      C2502   1.409       .  A
C2501      H2504   1.084       .  S
C2502      C2505   1.443       .  S
C2505      N2507   1.157       .  T
C2506      N2508   1.157       .  T
C2509      C2510   1.404       .  A
C2509      C2514   1.413       .  A
C2510      C2511   1.404       .  A
C2510      H2515   1.085       .  S
C2511      C2512   1.414       .  A
C2511      C2518   1.443       .  S
C2512      C2513   1.404       .  A
C2513      C2514   1.398       .  A
C2513      H2516   1.085       .  S
C2514      C2517   1.446       .  S
C2517      N2519   1.158       .  T
C2518      N2520   1.157       .  T
C2521      C2522   1.404       .  A
C2521      C2526   1.416       .  A
C2522      C2523   1.398       .  A
C2522      H2527   1.085       .  S
C2523      C2524   1.417       .  A
C2523      C2530   1.445       .  S
C2524      C2525   1.408       .  A
C2525      C2526   1.410       .  A
C2525      H2528   1.084       .  S
C2526      C2529   1.444       .  S
C2529      N2531   1.157       .  T
C2530      N2532   1.157       .  T
C2533      C2534   1.406       .  A
C2533      C2538   1.413       .  A
C2534      C2535   1.406       .  A
C2534      H2539   1.085       .  S
C2535      C2536   1.413       .  A
C2535      C2542   1.443       .  S
C2536      C2537   1.407       .  A
C2537      C2538   1.402       .  A
C2537      H2540   1.085       .  S
C2538      C2541   1.445       .  S
C2541      N2543   1.158       .  T
C2542      N2544   1.157       .  T
C2545      C2546   1.407       .  A
C2545      C2550   1.418       .  A
C2546      C2547   1.403       .  A
C2546      H2551   1.084       .  S
C2547      C2548   1.418       .  A
C2547      C2554   1.444       .  S
C2548      C2549   1.407       .  A
C2549      C2550   1.399       .  A
C2549      H2552   1.085       .  S
C2550      C2553   1.445       .  S
C2553      N2555   1.157       .  T
C2554      N2556   1.157       .  T
C2557      C2558   1.407       .  A
C2557      C2562   1.416       .  A
C2558      C2559   1.407       .  A
C2558      H2563   1.084       .  S
C2559      C2560   1.413       .  A
C2559      C2566   1.444       .  S
C2560      C2561   1.401       .  A
C2561      C2562   1.395       .  A
C2561      H2564   1.085       .  S
C2562      C2565   1.446       .  S
C2565      N2567   1.157       .  T
C2566      N2568   1.157       .  T
C2569      C2570   1.409       .  A
C2569      C2574   1.415       .  A
C2570      C2571   1.410       .  A
C2570      H2575   1.085       .  S
C2571      C2572   1.414       .  A
C2571      C2578   1.443       .  S
C2572      C2573   1.404       .  A
C2573      C2574   1.398       .  A
C2573      H2576   1.085       .  S
C2574      C2577   1.445       .  S
C2577      N2579   1.157       .  T
C2578      N2580   1.157       .  T
C2581      C2582   1.398       .  A
C2581      C2586   1.410       .  A
C2582      C2583   1.384       .  A
C2582      H2587   1.087       .  S
C2583      C2584   1.412       .  A
C2583      C2590   1.444       .  S
C2584      C2585   1.409       .  A
C2585      C2586   1.411       .  A
C2585      H2588   1.084       .  S
C2586      C2589   1.442       .  S
C2589      N2591   1.157       .  T
C2590      N2592   1.156       .  T
C2593      C2594   1.405       .  A
C2593      C2598   1.416       .  A
C2594      C2595   1.409       .  A
C2594      H2599   1.084       .  S
C2595      C2596   1.421       .  A
C2595      C2602   1.443       .  S
C2596      C2597   1.404       .  A
C2597      C2598   1.395       .  A
C2597      H2600   1.085       .  S
C2598      C2601   1.444       .  S
C2601      N2603   1.157       .  T
C2602      N2604   1.157       .  T
C2605      C2606   1.403       .  A
C2605      C2610   1.412       .  A
C2606      C2607   1.406   1_655  A
C2606      H2611   1.085       .  S
C2607      C2608   1.414       .  A
C2607      C2614   1.444       .  S
C2608      C2609   1.403       .  A
C2609      C2610   1.399   1_455  A
C2609      H2612   1.085       .  S
C2610      C2613   1.445       .  S
C2613      N2615   1.157       .  T
C2614      N2616   1.157       .  T
C2617      C2618   1.408       .  A
C2617      C2622   1.413       .  A
C2618      C2619   1.412   1_545  A
C2618      H2623   1.084       .  S
C2619      C2620   1.417       .  A
C2619      C2626   1.443       .  S
C2620      C2621   1.408       .  A
C2621      C2622   1.399   1_565  A
C2621      H2624   1.085       .  S
C2622      C2625   1.446       .  S
C2625      N2627   1.157       .  T
C2626      N2628   1.157       .  T
C2629      C2630   1.406       .  A
C2629      C2634   1.412       .  A
C2630      C2631   1.402       .  A
C2630      H2635   1.085       .  S
C2631      C2632   1.409       .  A
C2631      C2638   1.444       .  S
C2632      C2633   1.405       .  A
C2633      C2634   1.407       .  A
C2633      H2636   1.085       .  S
C2634      C2637   1.441       .  S
C2637      N2639   1.156       .  T
C2638      N2640   1.157       .  T
C2641      C2642   1.402       .  A
C2641      C2646   1.408       .  A
C2642      C2643   1.396       .  A
C2642      H2647   1.086       .  S
C2643      C2644   1.410       .  A
C2643      C2650   1.440       .  S
C2644      C2645   1.409       .  A
C2645      C2646   1.410       .  A
C2645      H2648   1.085       .  S
C2646      C2649   1.440       .  S
C2649      N2651   1.157       .  T
C2650      N2652   1.155       .  T
C2653      C2654   1.404       .  A
C2653      C2658   1.417       .  A
C2654      C2655   1.394   1_556  A
C2654      H2659   1.085       .  S
C2655      C2656   1.415       .  A
C2655      C2662   1.445       .  S
C2656      C2657   1.406       .  A
C2657      C2658   1.409   1_554  A
C2657      H2660   1.084       .  S
C2658      C2661   1.443       .  S
C2661      N2663   1.157       .  T
C2662      N2664   1.157       .  T
C2665      C2666   1.408       .  A
C2665      C2670   1.417       .  A
C2666      C2667   1.410   1_545  A
C2666      H2671   1.084       .  S
C2667      C2668   1.416       .  A
C2667      C2674   1.443       .  S
C2668      C2669   1.404       .  A
C2669      C2670   1.398   1_565  A
C2669      H2672   1.085       .  S
C2670      C2673   1.445       .  S
C2673      N2675   1.157       .  T
C2674      N2676   1.157       .  T
C2677      C2678   1.401       .  A
C2677      C2682   1.411       .  A
C2678      C2679   1.400       .  A
C2678      H2683   1.085       .  S
C2679      C2680   1.414       .  A
C2679      C2686   1.445       .  S
C2680      C2681   1.404       .  A
C2681      C2682   1.406       .  A
C2681      H2684   1.085       .  S
C2682      C2685   1.444       .  S
C2685      N2687   1.157       .  T
C2686      N2688   1.157       .  T
C2689      C2690   1.401       .  A
C2689      C2694   1.413       .  A
C2690      C2691   1.402       .  A
C2690      H2695   1.085       .  S
C2691      C2692   1.414       .  A
C2691      C2698   1.444       .  S
C2692      C2693   1.403       .  A
C2693      C2694   1.406       .  A
C2693      H2696   1.084       .  S
C2694      C2697   1.444       .  S
C2697      N2699   1.157       .  T
C2698      N2700   1.157       .  T
C2701      C2702   1.408       .  A
C2701      C2706   1.416       .  A
C2702      C2703   1.406       .  A
C2702      H2707   1.084       .  S
C2703      C2704   1.412       .  A
C2703      C2710   1.443       .  S
C2704      C2705   1.402       .  A
C2705      C2706   1.394       .  A
C2705      H2708   1.086       .  S
C2706      C2709   1.445       .  S
C2709      N2711   1.157       .  T
C2710      N2712   1.157       .  T
C2713      C2714   1.411       .  A
C2713      C2718   1.421       .  A
C2714      C2715   1.412   1_556  A
C2714      H2719   1.084       .  S
C2715      C2716   1.415       .  A
C2715      C2722   1.443       .  S
C2716      C2717   1.403       .  A
C2717      C2718   1.397   1_554  A
C2717      H2720   1.085       .  S
C2718      C2721   1.446       .  S
C2721      N2723   1.157       .  T
C2722      N2724   1.157       .  T
C2725      C2726   1.403       .  A
C2725      C2730   1.414       .  A
C2726      C2727   1.399   1_655  A
C2726      H2731   1.085       .  S
C2727      C2728   1.414       .  A
C2727      C2734   1.445       .  S
C2728      C2729   1.408       .  A
C2729      C2730   1.409   1_455  A
C2729      H2732   1.085       .  S
C2730      C2733   1.444       .  S
C2733      N2735   1.157       .  T
C2734      N2736   1.157       .  T
C2737      C2738   1.405       .  A
C2737      C2742   1.417       .  A
C2738      C2739   1.393       .  A
C2738      H2743   1.085       .  S
C2739      C2740   1.415       .  A
C2739      C2746   1.446       .  S
C2740      C2741   1.406       .  A
C2741      C2742   1.407       .  A
C2741      H2744   1.084       .  S
C2742      C2745   1.443       .  S
C2745      N2747   1.157       .  T
C2746      N2748   1.157       .  T
C2749      C2750   1.407       .  A
C2749      C2754   1.412       .  A
C2750      C2751   1.407       .  A
C2750      H2755   1.085       .  S
C2751      C2752   1.413       .  A
C2751      C2758   1.443       .  S
C2752      C2753   1.404       .  A
C2753      C2754   1.393       .  A
C2753      H2756   1.086       .  S
C2754      C2757   1.444       .  S
C2757      N2759   1.157       .  T
C2758      N2760   1.157       .  T
C2761      C2762   1.409       .  A
C2761      C2766   1.408       .  A
C2762      C2763   1.409       .  A
C2762      H2767   1.084       .  S
C2763      C2764   1.406       .  A
C2763      C2770   1.441       .  S
C2764      C2765   1.404       .  A
C2765      C2766   1.402       .  A
C2765      H2768   1.085       .  S
C2766      C2769   1.440       .  S
C2769      N2771   1.156       .  T
C2770      N2772   1.157       .  T
C2773      C2774   1.408       .  A
C2773      C2778   1.410       .  A
C2774      C2775   1.411       .  A
C2774      H2779   1.084       .  S
C2775      C2776   1.410       .  A
C2775      C2782   1.440       .  S
C2776      C2777   1.404       .  A
C2777      C2778   1.399       .  A
C2777      H2780   1.085       .  S
C2778      C2781   1.444       .  S
C2781      N2783   1.157       .  T
C2782      N2784   1.157       .  T
