geometry optimzed in LAMMPS
_audit_creation_date              2020-11-30 
_audit_creation_method            'lammps2cif' 
_symmetry_space_group_name_H-M    'P1' 
_symmetry_Int_Tables_number       1 
_symmetry_cell_setting            triclinic 
loop_ 
_symmetry_equiv_pos_as_xyz 
  x,y,z 
_cell_length_a                    46.12224072 
_cell_length_b                    26.903475466930075 
_cell_length_c                    45.978598994022235 
_cell_angle_alpha                 89.99730422023856 
_cell_angle_beta                  90.00646959843485 
_cell_angle_gamma                 89.99595848595979 
loop_ 
_atom_site_label 
_atom_site_type_symbol 
_atom_site_fract_x 
_atom_site_fract_y 
_atom_site_fract_z 
_atom_site_charge 
C1          C  0.05469662  0.89198688  0.06658355     0.43800
N2          N  0.04631892  0.95204728  0.03734641     0.02700
C3          C  0.42227791  0.09694932  0.02965830    -0.05200
H4          H  0.40467931  0.90672788  0.01498169     0.08200
C5          C  0.46749688  0.91503204  0.42443123    -0.05500
Co6        Co  0.49173905  0.00620916  0.05253105     0.74200
N7          N  0.44177408  0.95199998  0.02609363    -0.24700
Co8        Co  0.44456584  0.00620599  0.49382501     0.74100
C9          C  0.44030529  0.89155265  0.43271807     0.43900
N10         N  0.03508518  0.95185656  0.45057196     0.02300
N11         N  0.44859007  0.95191951  0.46172597     0.02400
N12         N  0.45338948  0.09555497  0.06778573    -0.45600
H13         H  0.01312029  0.90720016  0.09273315     0.08200
N14         N  0.45973829  0.95180425  0.04846737     0.02700
N15         N  0.44860844  0.06052483  0.46168146     0.02400
C16         C  0.44033838  0.12080312  0.43256134     0.44000
N17         N  0.05307412  0.95207373  0.47292443    -0.24200
C18         C  0.02723932  0.09741129  0.07462569    -0.05100
N19         N  0.06545708  0.91686995  0.04354685    -0.45300
N20         N  0.42957099  0.09591298  0.45559098    -0.45500
C21         C  0.05442414  0.12100959  0.06642072     0.43800
N22         N  0.45962667  0.06043665  0.04856364     0.02700
N23         N  0.05307438  0.06041211  0.47281426    -0.24200
N24         N  0.02399809  0.95215219  0.05533930    -0.24700
N25         N  0.03512052  0.06045845  0.45043101     0.02300
H26         H  0.09026377  0.10559490  0.48372370     0.08200
H27         H  0.48185467  0.10543761  0.40632700     0.08200
N28         N  0.44167973  0.06028026  0.02617625    -0.24700
N29         N  0.47088205  0.95201331  0.44370059    -0.24400
N30         N  0.04624298  0.06064852  0.03732733     0.02700
C31         C  0.43080630  0.89134989  0.05663907     0.44100
C32         C  0.07233843  0.91517652  0.46953427    -0.05600
N33         N  0.47088995  0.06031403  0.44363518    -0.24400
H34         H  0.48183050  0.90671245  0.40646298     0.08200
N35         N  0.45370898  0.91630976  0.06751405    -0.45600
H36         H  0.09030609  0.90702250  0.48388085     0.08200
C37         C  0.06415562  0.12067299  0.44201168     0.43900
C38         C  0.02743372  0.91536593  0.07472484    -0.05100
Co39       Co  0.05029478  0.00631102  0.00518920     0.73800
N40         N  0.04117920  0.91653612  0.43145022    -0.45300
C41         C  0.43035105  0.12032099  0.05703099     0.44200
N42         N  0.06525294  0.09608812  0.04342397    -0.45300
Co43       Co  0.00308425  0.00615460  0.44647298     0.73900
C44         C  0.46751964  0.09722637  0.42431199    -0.05600
C45         C  0.42256873  0.91499295  0.02940358    -0.05200
N46         N  0.02392368  0.06044600  0.05533200    -0.24700
N47         N  0.42953755  0.91653985  0.45569784    -0.45500
H48         H  0.40430499  0.10504507  0.01530801     0.08200
C49         C  0.07233217  0.09730950  0.46935990    -0.05600
Cl50       Cl  0.99742381  0.00625360  0.99950800    -0.48600
C51         C  0.06412412  0.89163489  0.44225827     0.43900
H52         H  0.01285808  0.10565867  0.09256677     0.08100
N53         N  0.04121875  0.09568795  0.43124004    -0.45300
C54         C  0.30462582  0.62099915  0.18260121     0.43800
N55         N  0.29629131  0.56088879  0.21184619     0.02700
C56         C  0.17203521  0.41622296  0.21946092    -0.05200
H57         H  0.15472985  0.60647411  0.23404605     0.08200
C58         C  0.21749764  0.59830709  0.32447782    -0.05500
Co59       Co  0.24171408  0.50660564  0.19665365     0.74200
N60         N  0.19174740  0.56097109  0.22298917    -0.24700
Co61       Co  0.19445354  0.50682344  0.25527997     0.74100
C62         C  0.19037471  0.62195116  0.31609320     0.43900
N63         N  0.28496171  0.56096845  0.29871465     0.02300
N64         N  0.19849892  0.56116121  0.28732749     0.02400
N65         N  0.20321059  0.41738314  0.18139388    -0.45600
H66         H  0.26307432  0.60565415  0.15643233     0.08200
N67         N  0.20974925  0.56107499  0.20065172     0.02700
N68         N  0.19840542  0.45253412  0.28741585     0.02400
C69         C  0.18997285  0.39233756  0.31654086     0.44000
N70         N  0.30297568  0.56085204  0.27638255    -0.24200
C71         C  0.27730130  0.41534272  0.17463322    -0.05100
N72         N  0.31539065  0.59614882  0.20566196    -0.45300
N73         N  0.17927437  0.41730933  0.29351190    -0.45500
C74         C  0.30452591  0.39183864  0.18287021     0.43800
N75         N  0.20953674  0.45241776  0.20063930     0.02700
N76         N  0.30299183  0.45256034  0.27646596    -0.24200
N77         N  0.27399091  0.56069068  0.19381976    -0.24700
N78         N  0.28499368  0.45245334  0.29881290     0.02300
H79         H  0.34035072  0.40768287  0.26571251     0.08200
H80         H  0.23150752  0.40745980  0.34280695     0.08200
N81         N  0.19154159  0.45271501  0.22298307    -0.24700
N82         N  0.22077859  0.56105090  0.30536938    -0.24400
N83         N  0.29622197  0.45222998  0.21193660     0.02700
C84         C  0.18095672  0.62170938  0.19244017     0.44100
C85         C  0.32228374  0.59765144  0.27991420    -0.05600
N86         N  0.22068419  0.45261699  0.30546839    -0.24400
H87         H  0.23187173  0.60675778  0.34239451     0.08200
N88         N  0.20382909  0.59662436  0.18160759    -0.45600
H89         H  0.34030174  0.60582027  0.26563925     0.08200
C90         C  0.31420178  0.39252222  0.30738154     0.43900
C91         C  0.27740191  0.59749617  0.17443427    -0.05100
Co92       Co  0.30023053  0.50664104  0.24406404     0.73800
N93         N  0.29106021  0.59611744  0.31794013    -0.45300
C94         C  0.18008650  0.39279557  0.19210247     0.44200
N95         N  0.31528706  0.41686192  0.20586285    -0.45300
Co96       Co  0.25293097  0.50675276  0.30270519     0.73900
C97         C  0.21722237  0.41571615  0.32478574    -0.05600
C98         C  0.17261698  0.59808908  0.21964846    -0.05200
N99         N  0.27391106  0.45232691  0.19391497    -0.24700
N100        N  0.17954252  0.59676667  0.29321414    -0.45500
H101        H  0.15398462  0.40833746  0.23375021     0.08200
C102        C  0.32234782  0.41583366  0.28001016    -0.05600
Cl103      Cl  0.24734473  0.50669313  0.24967365    -0.48600
C104        C  0.31404843  0.62101139  0.30724768     0.43900
H105        H  0.26296406  0.40706236  0.15665849     0.08100
N106        N  0.29117574  0.41737338  0.31807625    -0.45300
C107        C  0.13282075  0.29171975  0.14574594     0.18400
C108        C  0.10672201  0.27288609  0.15681938    -0.10800
C109        C  0.09029722  0.23930844  0.14039503    -0.11600
C110        C  0.09986614  0.22443792  0.11279711     0.19900
C111        C  0.12592778  0.24335993  0.10171019    -0.13600
C112        C  0.14234898  0.27691342  0.11813032    -0.11900
C113        C  0.08326178  0.18915459  0.09607993     0.00900
C114        C  0.06983738  0.15866624  0.08231897    -0.31900
C115        C  0.14972301  0.32644262  0.16256856     0.02300
C116        C  0.16377260  0.35616475  0.17627931    -0.33600
H117        H  0.09910558  0.28410075  0.17812097     0.13300
H118        H  0.07022021  0.22485448  0.14923092     0.13100
H119        H  0.13358575  0.23206613  0.08043766     0.13000
H120        H  0.16246267  0.29125848  0.10931744     0.12000
C121        C  0.11080229  0.22274320  0.39585620     0.18400
C122        C  0.11398314  0.27178037  0.40562102    -0.10800
C123        C  0.13025892  0.30582750  0.38940265    -0.11600
C124        C  0.14345717  0.29098811  0.36334905     0.19900
C125        C  0.14025869  0.24196524  0.35357804    -0.13600
C126        C  0.12398019  0.20792756  0.36978969    -0.11900
C127        C  0.16023292  0.32601445  0.34665728     0.00900
C128        C  0.17407501  0.35574610  0.33276924    -0.31900
C129        C  0.09407220  0.18763026  0.41253998     0.02300
C130        C  0.08022886  0.15762722  0.42623178    -0.33600
H131        H  0.10390131  0.28366169  0.42573648     0.13300
H132        H  0.13256333  0.34364196  0.39716691     0.13100
H133        H  0.15034400  0.23007649  0.33346522     0.13000
H134        H  0.12167636  0.17011640  0.36201956     0.12000
C135        C  0.10114357  0.79102712  0.11371003     0.18400
C136        C  0.10071863  0.79328515  0.14416490    -0.10800
C137        C  0.11737408  0.75999002  0.16053717    -0.11600
C138        C  0.13456044  0.72432684  0.14652416     0.19900
C139        C  0.13501056  0.72213314  0.11607470    -0.13600
C140        C  0.11835512  0.75540397  0.09970960    -0.11900
C141        C  0.15140073  0.68951636  0.16330135     0.00900
C142        C  0.16515810  0.65926462  0.17688552    -0.31900
C143        C  0.08420309  0.82556334  0.09684294     0.02300
C144        C  0.07044545  0.85525079  0.08284068    -0.33600
H145        H  0.08753707  0.82074093  0.15522619     0.13300
H146        H  0.11681296  0.76198334  0.18406449     0.13100
H147        H  0.14817712  0.69466613  0.10500447     0.13000
H148        H  0.11890214  0.75337000  0.07618280     0.12000
C149        C  0.38361061  0.22259054  0.10303560     0.18400
C150        C  0.35538256  0.23504108  0.09438894    -0.10800
C151        C  0.33893844  0.26841408  0.11093583    -0.11600
C152        C  0.35061904  0.28950292  0.13623273     0.19900
C153        C  0.37885863  0.27708659  0.14485534    -0.13600
C154        C  0.39530001  0.24372273  0.12831065    -0.11900
C155        C  0.33382953  0.32438148  0.15308136     0.00900
C156        C  0.32016046  0.35451444  0.16688624    -0.31900
C157        C  0.40040002  0.18759785  0.08628126     0.02300
C158        C  0.41427435  0.15746275  0.07269572    -0.33600
H159        H  0.34608249  0.21889499  0.07492140     0.13300
H160        H  0.31716404  0.27779598  0.10400408     0.13100
H161        H  0.38816112  0.29321551  0.16432652     0.13000
H162        H  0.41707232  0.23433502  0.13524848     0.12000
C163        C  0.36110111  0.72171856  0.35388305     0.18400
C164        C  0.37937635  0.75564959  0.33980945    -0.10800
C165        C  0.39594804  0.78914348  0.35608864    -0.11600
C166        C  0.39435559  0.78882464  0.38652182     0.19900
C167        C  0.37611484  0.75483754  0.40061264    -0.13600
C168        C  0.35953048  0.72133957  0.38432672    -0.11900
C169        C  0.41110943  0.82383621  0.40320488     0.00900
C170        C  0.42474630  0.85411422  0.41686666    -0.31900
C171        C  0.34413113  0.68714416  0.33710351     0.02300
C172        C  0.33020065  0.65756894  0.32321135    -0.33600
H173        H  0.38078951  0.75623043  0.31629125     0.13300
H174        H  0.40993351  0.81532511  0.34496448     0.13100
H175        H  0.37466965  0.75432550  0.42412973     0.13000
H176        H  0.34549751  0.69522130  0.39544192     0.11200
C177        C  0.39434471  0.22331435  0.38608899     0.18400
C178        C  0.37878349  0.26100621  0.40018922    -0.10800
C179        C  0.36230464  0.29478586  0.38398198    -0.11600
C180        C  0.36127334  0.29102399  0.35359300     0.19900
C181        C  0.37685949  0.25335747  0.33949148    -0.13600
C182        C  0.39334163  0.21957962  0.35569951    -0.11900
C183        C  0.34434857  0.32591836  0.33692942     0.00900
C184        C  0.33037609  0.35576525  0.32323820    -0.31900
C185        C  0.41107253  0.18819353  0.40277394     0.02300
C186        C  0.42472017  0.15802881  0.41654392    -0.33600
H187        H  0.37935533  0.26422077  0.42367039     0.13300
H188        H  0.35037003  0.32377555  0.39512713     0.13100
H189        H  0.37625542  0.25009883  0.31601369     0.13000
H190        H  0.40524782  0.19054835  0.34456002     0.12000
C191        C  0.11140014  0.79129156  0.39559613     0.18400
C192        C  0.10382895  0.74087930  0.39503466    -0.10800
C193        C  0.12018080  0.70727607  0.37860995    -0.11600
C194        C  0.14419444  0.72391884  0.36267306     0.19900
C195        C  0.15176396  0.77434967  0.36321635    -0.13600
C196        C  0.13539576  0.80797135  0.37963591    -0.11900
C197        C  0.16102575  0.68918678  0.34585432     0.00900
C198        C  0.17473365  0.65918463  0.33204646    -0.31900
C199        C  0.09451230  0.82587161  0.41244819     0.02300
C200        C  0.08045637  0.85529146  0.42632102    -0.33600
H201        H  0.08531061  0.72758344  0.40726822     0.13300
H202        H  0.11412223  0.66837133  0.37834545     0.13100
H203        H  0.17028069  0.78763524  0.35097797     0.13000
H204        H  0.14143203  0.84688684  0.37989065     0.12000
C205        C  0.35089077  0.72237367  0.13553098     0.18400
C206        C  0.33772779  0.75097295  0.11373621    -0.10800
C207        C  0.35431961  0.78407569  0.09716929    -0.11600
C208        C  0.38415248  0.78873458  0.10230279     0.19900
C209        C  0.39731930  0.76007885  0.12405956    -0.13600
C210        C  0.38073421  0.72696991  0.14061433    -0.11900
C211        C  0.40110009  0.82357118  0.08564988     0.00900
C212        C  0.41492875  0.85382441  0.07214007    -0.31900
C213        C  0.33392676  0.68792114  0.15246138     0.02300
C214        C  0.32025552  0.65806567  0.16644517    -0.33600
H215        H  0.31468884  0.74768526  0.10956537     0.13300
H216        H  0.34389091  0.80611969  0.08044845     0.13100
H217        H  0.42034777  0.76343929  0.12827353     0.13000
H218        H  0.39116229  0.70499112  0.15736454     0.12000
C219        C  0.05469669  0.89198698  0.56658359     0.43800
N220        N  0.04631899  0.95204740  0.53734644     0.02700
C221        C  0.42227794  0.09694936  0.52965832    -0.05200
H222        H  0.40467932  0.90672771  0.51498162     0.08200
C223        C  0.46749678  0.91503201  0.92443126    -0.05500
Co224      Co  0.49173908  0.00620913  0.55253107     0.74200
N225        N  0.44177407  0.95199995  0.52609363    -0.24700
Co226      Co  0.44456580  0.00620595  0.99382502     0.74100
C227        C  0.44030522  0.89155262  0.93271810     0.43900
N228        N  0.03508515  0.95185658  0.95057195     0.02300
N229        N  0.44858999  0.95191946  0.96172599     0.02400
N230        N  0.45338951  0.09555492  0.56778576    -0.45600
H231        H  0.01312031  0.90720009  0.59273317     0.08200
N232        N  0.45973828  0.95180423  0.54846739     0.02700
N233        N  0.44860848  0.06052477  0.96168147     0.02400
C234        C  0.44033848  0.12080310  0.93256136     0.44000
N235        N  0.05307406  0.95207365  0.97292445    -0.24200
C236        C  0.02723933  0.09741130  0.57462565    -0.05100
N237        N  0.06545712  0.91687002  0.54354685    -0.45300
N238        N  0.42957106  0.09591299  0.95559100    -0.45500
C239        C  0.05442409  0.12100981  0.56642061     0.43800
N240        N  0.45962669  0.06043662  0.54856366     0.02700
N241        N  0.05307443  0.06041213  0.97281430    -0.24200
N242        N  0.02399813  0.95215222  0.55533932    -0.24700
N243        N  0.03512055  0.06045850  0.95043104     0.02300
H244        H  0.09026389  0.10559487  0.98372367     0.08200
H245        H  0.48185476  0.10543746  0.90632705     0.08200
N246        N  0.44167976  0.06028028  0.52617625    -0.24700
N247        N  0.47088198  0.95201325  0.94370060    -0.24400
N248        N  0.04624301  0.06064863  0.53732729     0.02700
C249        C  0.43080629  0.89134985  0.55663908     0.44100
C250        C  0.07233834  0.91517642  0.96953427    -0.05600
N251        N  0.47088997  0.06031393  0.94363519    -0.24400
H252        H  0.48183041  0.90671241  0.90646295     0.08200
N253        N  0.45370895  0.91630976  0.56751407    -0.45600
H254        H  0.09030603  0.90702234  0.98388088     0.08200
C255        C  0.06415574  0.12067295  0.94201167     0.43900
C256        C  0.02743378  0.91536595  0.57472484    -0.05100
Co257      Co  0.05029485  0.00631113  0.50518919     0.73800
N258        N  0.04117919  0.91653620  0.93145019    -0.45300
C259        C  0.43035107  0.12032095  0.55703103     0.44200
N260        N  0.06525294  0.09608833  0.54342390    -0.45300
Co261      Co  0.00308423  0.00615459  0.94647297     0.73900
C262        C  0.46751973  0.09722628  0.92431199    -0.05600
C263        C  0.42256875  0.91499289  0.52940358    -0.05200
N264        N  0.02392374  0.06044598  0.55533198    -0.24700
N265        N  0.42953746  0.91653981  0.95569787    -0.45500
H266        H  0.40430501  0.10504523  0.51530802     0.08200
C267        C  0.07233229  0.09730950  0.96935992    -0.05600
Cl268      Cl  0.99742388  0.00625366  0.49950806    -0.48600
C269        C  0.06412405  0.89163484  0.94225826     0.43900
H270        H  0.01285809  0.10565858  0.59256672     0.08100
N271        N  0.04121885  0.09568794  0.93124005    -0.45300
C272        C  0.30462580  0.62099914  0.68260116     0.43800
N273        N  0.29629127  0.56088880  0.71184619     0.02700
C274        C  0.17203519  0.41622297  0.71946094    -0.05200
H275        H  0.15472997  0.60647413  0.73404609     0.08200
C276        C  0.21749766  0.59830718  0.82447779    -0.05500
Co277      Co  0.24171409  0.50660562  0.69665364     0.74200
N278        N  0.19174743  0.56097102  0.72298911    -0.24700
Co279      Co  0.19445357  0.50682342  0.75527996     0.74100
C280        C  0.19037469  0.62195112  0.81609322     0.43900
N281        N  0.28496174  0.56096844  0.79871465     0.02300
N282        N  0.19849888  0.56116116  0.78732753     0.02400
N283        N  0.20321057  0.41738318  0.68139388    -0.45600
H284        H  0.26307430  0.60565412  0.65643230     0.08200
N285        N  0.20974924  0.56107489  0.70065161     0.02700
N286        N  0.19840548  0.45253412  0.78741584     0.02400
C287        C  0.18997291  0.39233759  0.81654090     0.44000
N288        N  0.30297572  0.56085203  0.77638255    -0.24200
C289        C  0.27730124  0.41534268  0.67463323    -0.05100
N290        N  0.31539060  0.59614883  0.70566194    -0.45300
N291        N  0.17927441  0.41730943  0.79351198    -0.45500
C292        C  0.30452584  0.39183857  0.68287023     0.43800
N293        N  0.20953674  0.45241777  0.70063932     0.02700
N294        N  0.30299179  0.45256029  0.77646596    -0.24200
N295        N  0.27399089  0.56069069  0.69381974    -0.24700
N296        N  0.28499365  0.45245329  0.79881289     0.02300
H297        H  0.34035071  0.40768294  0.76571257     0.08200
H298        H  0.23150757  0.40746000  0.84280701     0.08200
N299        N  0.19154161  0.45271501  0.72298309    -0.24700
N300        N  0.22077857  0.56105090  0.80536939    -0.24400
N301        N  0.29622195  0.45222993  0.71193662     0.02700
C302        C  0.18095672  0.62170929  0.69244012     0.44100
C303        C  0.32228383  0.59765142  0.77991422    -0.05600
N304        N  0.22068425  0.45261700  0.80546837    -0.24400
H305        H  0.23187179  0.60675800  0.84239438     0.08200
N306        N  0.20382907  0.59662428  0.68160751    -0.45600
H307        H  0.34030183  0.60582030  0.76563933     0.08200
C308        C  0.31420176  0.39252222  0.80738154     0.43900
C309        C  0.27740186  0.59749619  0.67443422    -0.05100
Co310      Co  0.30023049  0.50664103  0.74406404     0.73800
N311        N  0.29106023  0.59611741  0.81794014    -0.45300
C312        C  0.18008647  0.39279563  0.69210246     0.44200
N313        N  0.31528701  0.41686185  0.70586286    -0.45300
Co314      Co  0.25293097  0.50675276  0.80270519     0.73900
C315        C  0.21722244  0.41571621  0.82478576    -0.05600
C316        C  0.17261702  0.59808904  0.71964844    -0.05200
N317        N  0.27391104  0.45232688  0.69391499    -0.24700
N318        N  0.17954246  0.59676661  0.79321419    -0.45500
H319        H  0.15398466  0.40833745  0.73375021     0.08200
C320        C  0.32234784  0.41583364  0.78001016    -0.05600
Cl321      Cl  0.24734470  0.50669330  0.74967366    -0.48600
C322        C  0.31404849  0.62101131  0.80724772     0.43900
H323        H  0.26296402  0.40706243  0.65665852     0.08100
N324        N  0.29117575  0.41737337  0.81807627    -0.45300
C325        C  0.13282073  0.29171973  0.64574598     0.18400
C326        C  0.10672196  0.27288614  0.65681937    -0.10800
C327        C  0.09029715  0.23930853  0.64039502    -0.11600
C328        C  0.09986613  0.22443794  0.61279713     0.19900
C329        C  0.12592773  0.24336007  0.60171021    -0.13600
C330        C  0.14234901  0.27691342  0.61813036    -0.11900
C331        C  0.08326180  0.18915455  0.59607997     0.00900
C332        C  0.06983741  0.15866621  0.58231898    -0.31900
C333        C  0.14972296  0.32644261  0.66256861     0.02300
C334        C  0.16377256  0.35616477  0.67627933    -0.33600
H335        H  0.09910549  0.28410081  0.67812098     0.13300
H336        H  0.07022014  0.22485465  0.64923087     0.13100
H337        H  0.13358571  0.23206638  0.58043756     0.13000
H338        H  0.16246267  0.29125839  0.60931754     0.12000
C339        C  0.11080227  0.22274315  0.89585618     0.18400
C340        C  0.11398321  0.27178025  0.90562110    -0.10800
C341        C  0.13025906  0.30582738  0.88940278    -0.11600
C342        C  0.14345714  0.29098811  0.86334907     0.19900
C343        C  0.14025860  0.24196524  0.85357801    -0.13600
C344        C  0.12398011  0.20792752  0.86978965    -0.11900
C345        C  0.16023290  0.32601445  0.84665728     0.00900
C346        C  0.17407508  0.35574604  0.83276926    -0.31900
C347        C  0.09407220  0.18763017  0.91253991     0.02300
C348        C  0.08022889  0.15762721  0.92623175    -0.33600
H349        H  0.10390144  0.28366149  0.92573662     0.13300
H350        H  0.13256359  0.34364176  0.89716714     0.13100
H351        H  0.15034380  0.23007653  0.83346518     0.13000
H352        H  0.12167621  0.17011644  0.86201951     0.12000
C353        C  0.10114354  0.79102706  0.61371005     0.18400
C354        C  0.10071869  0.79328512  0.64416493    -0.10800
C355        C  0.11737414  0.75998998  0.66053719    -0.11600
C356        C  0.13456047  0.72432681  0.64652416     0.19900
C357        C  0.13501065  0.72213327  0.61607469    -0.13600
C358        C  0.11835510  0.75540394  0.59970961    -0.11900
C359        C  0.15140076  0.68951632  0.66330134     0.00900
C360        C  0.16515808  0.65926454  0.67688553    -0.31900
C361        C  0.08420310  0.82556332  0.59684295     0.02300
C362        C  0.07044546  0.85525075  0.58284068    -0.33600
H363        H  0.08753714  0.82074095  0.65522625     0.13300
H364        H  0.11681304  0.76198324  0.68406452     0.13100
H365        H  0.14817733  0.69466646  0.60500443     0.13000
H366        H  0.11890210  0.75336995  0.57618281     0.12000
C367        C  0.38361057  0.22259044  0.60303564     0.18400
C368        C  0.35538252  0.23504102  0.59438893    -0.10800
C369        C  0.33893844  0.26841405  0.61093584    -0.11600
C370        C  0.35061901  0.28950293  0.63623273     0.19900
C371        C  0.37885865  0.27708674  0.64485532    -0.13600
C372        C  0.39529997  0.24372269  0.62831067    -0.11900
C373        C  0.33382946  0.32438155  0.65308127     0.00900
C374        C  0.32016040  0.35451452  0.66688616    -0.31900
C375        C  0.40039998  0.18759777  0.58628127     0.02300
C376        C  0.41427439  0.15746274  0.57269576    -0.33600
H377        H  0.34608247  0.21889503  0.57492142     0.13300
H378        H  0.31716404  0.27779600  0.60400405     0.13100
H379        H  0.38816114  0.29321578  0.66432642     0.13000
H380        H  0.41707228  0.23433492  0.63524851     0.12000
C381        C  0.36110105  0.72171869  0.85388302     0.18400
C382        C  0.37937624  0.75564983  0.83980944    -0.10800
C383        C  0.39594797  0.78914361  0.85608865    -0.11600
C384        C  0.39435558  0.78882467  0.88652183     0.19900
C385        C  0.37611493  0.75483743  0.90061266    -0.13600
C386        C  0.35953057  0.72133950  0.88432670    -0.11900
C387        C  0.41110942  0.82383625  0.90320485     0.00900
C388        C  0.42474625  0.85411423  0.91686667    -0.31900
C389        C  0.34413119  0.68714420  0.83710343     0.02300
C390        C  0.33020067  0.65756893  0.82321136    -0.33600
H391        H  0.38078936  0.75623079  0.81629125     0.13300
H392        H  0.40993341  0.81532531  0.84496450     0.13100
H393        H  0.37466986  0.75432525  0.92412976     0.13000
H394        H  0.34549770  0.69522098  0.89544192     0.11200
C395        C  0.39434478  0.22331442  0.88608896     0.18400
C396        C  0.37878346  0.26100619  0.90018921    -0.10800
C397        C  0.36230459  0.29478592  0.88398201    -0.11600
C398        C  0.36127325  0.29102403  0.85359302     0.19900
C399        C  0.37685947  0.25335765  0.83949148    -0.13600
C400        C  0.39334171  0.21957985  0.85569947    -0.11900
C401        C  0.34434847  0.32591838  0.83692945     0.00900
C402        C  0.33037606  0.35576533  0.82323823    -0.31900
C403        C  0.41107263  0.18819352  0.90277390     0.02300
C404        C  0.42472028  0.15802880  0.91654391    -0.33600
H405        H  0.37935526  0.26422067  0.92367038     0.13300
H406        H  0.35037002  0.32377554  0.89512716     0.13100
H407        H  0.37625534  0.25009907  0.81601369     0.13000
H408        H  0.40524793  0.19054865  0.84455990     0.12000
C409        C  0.11140019  0.79129161  0.89559616     0.18400
C410        C  0.10382896  0.74087939  0.89503464    -0.10800
C411        C  0.12018083  0.70727607  0.87860998    -0.11600
C412        C  0.14419444  0.72391892  0.86267303     0.19900
C413        C  0.15176400  0.77434973  0.86321636    -0.13600
C414        C  0.13539578  0.80797147  0.87963590    -0.11900
C415        C  0.16102571  0.68918691  0.84585419     0.00900
C416        C  0.17473367  0.65918469  0.83204644    -0.31900
C417        C  0.09451234  0.82587164  0.91244824     0.02300
C418        C  0.08045630  0.85529141  0.92632102    -0.33600
H419        H  0.08531059  0.72758358  0.90726818     0.13300
H420        H  0.11412227  0.66837144  0.87834551     0.13100
H421        H  0.17028069  0.78763525  0.85097800     0.13000
H422        H  0.14143200  0.84688685  0.87989058     0.12000
C423        C  0.35089080  0.72237374  0.63553103     0.18400
C424        C  0.33772781  0.75097296  0.61373622    -0.10800
C425        C  0.35431967  0.78407564  0.59716929    -0.11600
C426        C  0.38415253  0.78873453  0.60230281     0.19900
C427        C  0.39731940  0.76007879  0.62405957    -0.13600
C428        C  0.38073426  0.72696987  0.64061435    -0.11900
C429        C  0.40110017  0.82357107  0.58564990     0.00900
C430        C  0.41492881  0.85382429  0.57214008    -0.31900
C431        C  0.33392674  0.68792124  0.65246141     0.02300
C432        C  0.32025546  0.65806583  0.66644519    -0.33600
H433        H  0.31468894  0.74768526  0.60956537     0.13300
H434        H  0.34389096  0.80611960  0.58044842     0.13100
H435        H  0.42034780  0.76343921  0.62827351     0.13000
H436        H  0.39116236  0.70499109  0.65736452     0.12000
C437        C  0.55469663  0.89198685  0.06658357     0.43800
N438        N  0.54631895  0.95204727  0.03734641     0.02700
C439        C  0.92227799  0.09694936  0.02965829    -0.05200
H440        H  0.90467931  0.90672788  0.01498169     0.08200
C441        C  0.96749686  0.91503200  0.42443121    -0.05500
Co442      Co  0.99173904  0.00620918  0.05253104     0.74200
N443        N  0.94177407  0.95199998  0.02609363    -0.24700
Co444      Co  0.94456583  0.00620596  0.49382501     0.74100
C445        C  0.94030528  0.89155259  0.43271805     0.43900
N446        N  0.53508517  0.95185662  0.45057195     0.02300
N447        N  0.94859007  0.95191941  0.46172599     0.02400
N448        N  0.95338949  0.09555494  0.06778575    -0.45600
H449        H  0.51312028  0.90720017  0.09273314     0.08200
N450        N  0.95973829  0.95180425  0.04846737     0.02700
N451        N  0.94860843  0.06052481  0.46168146     0.02400
C452        C  0.94033843  0.12080309  0.43256134     0.44000
N453        N  0.55307410  0.95207373  0.47292443    -0.24200
C454        C  0.52723933  0.09741112  0.07462572    -0.05100
N455        N  0.56545709  0.91686991  0.04354686    -0.45300
N456        N  0.92957099  0.09591298  0.45559098    -0.45500
C457        C  0.55442411  0.12100953  0.06642072     0.43800
N458        N  0.95962668  0.06043663  0.04856366     0.02700
N459        N  0.55307438  0.06041211  0.47281428    -0.24200
N460        N  0.52399810  0.95215219  0.05533929    -0.24700
N461        N  0.53512051  0.06045845  0.45043101     0.02300
H462        H  0.59026376  0.10559495  0.48372372     0.08200
H463        H  0.98185469  0.10543758  0.40632701     0.08200
N464        N  0.94167977  0.06028027  0.02617624    -0.24700
N465        N  0.97088204  0.95201324  0.44370060    -0.24400
N466        N  0.54624301  0.06064848  0.03732732     0.02700
C467        C  0.93080630  0.89134988  0.05663907     0.44100
C468        C  0.57233841  0.91517652  0.46953423    -0.05600
N469        N  0.97088995  0.06031400  0.44363519    -0.24400
H470        H  0.98183048  0.90671246  0.40646295     0.08200
N471        N  0.95370898  0.91630976  0.06751405    -0.45600
H472        H  0.59030607  0.90702242  0.48388080     0.08200
C473        C  0.56415562  0.12067300  0.44201169     0.43900
C474        C  0.52743372  0.91536593  0.07472484    -0.05100
Co475      Co  0.55029486  0.00631103  0.00518919     0.73800
N476        N  0.54117923  0.91653629  0.43145015    -0.45300
C477        C  0.93035107  0.12032101  0.05703098     0.44200
N478        N  0.56525294  0.09608813  0.04342397    -0.45300
Co479      Co  0.50308425  0.00615463  0.44647298     0.73900
C480        C  0.96751966  0.09722633  0.42431199    -0.05600
C481        C  0.92256872  0.91499295  0.02940358    -0.05200
N482        N  0.52392370  0.06044592  0.05533198    -0.24700
N483        N  0.92953754  0.91653977  0.45569784    -0.45500
H484        H  0.90430505  0.10504518  0.01530793     0.08200
C485        C  0.57233215  0.09730951  0.46935990    -0.05600
Cl486      Cl  0.49742384  0.00625360  0.99950807    -0.48600
C487        C  0.56412413  0.89163501  0.44225819     0.43900
H488        H  0.51285810  0.10565838  0.09256684     0.08100
N489        N  0.54121875  0.09568795  0.43124004    -0.45300
C490        C  0.80462580  0.62099923  0.18260128     0.43800
N491        N  0.79629131  0.56088876  0.21184620     0.02700
C492        C  0.67203519  0.41622296  0.21946097    -0.05200
H493        H  0.65472987  0.60647417  0.23404603     0.08200
C494        C  0.71749760  0.59830710  0.32447783    -0.05500
Co495      Co  0.74171405  0.50660560  0.19665366     0.74200
N496        N  0.69174738  0.56097111  0.22298917    -0.24700
Co497      Co  0.69445353  0.50682344  0.25528002     0.74100
C498        C  0.69037465  0.62195109  0.31609321     0.43900
N499        N  0.78496174  0.56096844  0.29871465     0.02300
N500        N  0.69849890  0.56116120  0.28732751     0.02400
N501        N  0.70321057  0.41738314  0.18139389    -0.45600
H502        H  0.76307434  0.60565419  0.15643235     0.08200
N503        N  0.70974918  0.56107493  0.20065168     0.02700
N504        N  0.69840540  0.45253411  0.28741592     0.02400
C505        C  0.68997286  0.39233756  0.31654094     0.44000
N506        N  0.80297574  0.56085201  0.27638256    -0.24200
C507        C  0.77730128  0.41534266  0.17463327    -0.05100
N508        N  0.81539063  0.59614882  0.20566200    -0.45300
N509        N  0.67927434  0.41730936  0.29351202    -0.45500
C510        C  0.80452591  0.39183865  0.18287022     0.43800
N511        N  0.70953671  0.45241777  0.20063932     0.02700
N512        N  0.80299183  0.45256032  0.27646595    -0.24200
N513        N  0.77399091  0.56069066  0.19381977    -0.24700
N514        N  0.78499371  0.45245335  0.29881291     0.02300
H515        H  0.84035068  0.40768285  0.26571247     0.08200
H516        H  0.73150753  0.40745984  0.34280698     0.08200
N517        N  0.69154159  0.45271502  0.22298311    -0.24700
N518        N  0.72077858  0.56105093  0.30536939    -0.24400
N519        N  0.79622195  0.45222992  0.21193664     0.02700
C520        C  0.68095670  0.62170937  0.19244014     0.44100
C521        C  0.82228377  0.59765145  0.27991421    -0.05600
N522        N  0.72068420  0.45261697  0.30546841    -0.24400
H523        H  0.73187167  0.60675785  0.34239452     0.08200
N524        N  0.70382902  0.59662428  0.18160753    -0.45600
H525        H  0.84030178  0.60582038  0.26563925     0.08200
C526        C  0.81420181  0.39252223  0.30738153     0.43900
C527        C  0.77740191  0.59749619  0.17443430    -0.05100
Co528      Co  0.80023054  0.50664101  0.24406405     0.73800
N529        N  0.79106021  0.59611745  0.31794011    -0.45300
C530        C  0.68008649  0.39279558  0.19210251     0.44200
N531        N  0.81528708  0.41686192  0.20586284    -0.45300
Co532      Co  0.75293098  0.50675277  0.30270519     0.73900
C533        C  0.71722240  0.41571614  0.32478578    -0.05600
C534        C  0.67261695  0.59808912  0.21964845    -0.05200
N535        N  0.77391102  0.45232680  0.19391505    -0.24700
N536        N  0.67954248  0.59676664  0.29321415    -0.45500
H537        H  0.65398466  0.40833743  0.23375024     0.08200
C538        C  0.82234784  0.41583362  0.28001012    -0.05600
Cl539      Cl  0.74734471  0.50669313  0.24967367    -0.48600
C540        C  0.81404844  0.62101141  0.30724768     0.43900
H541        H  0.76296409  0.40706241  0.15665849     0.08100
N542        N  0.79117582  0.41737344  0.31807628    -0.45300
C543        C  0.63282074  0.29171977  0.14574595     0.18400
C544        C  0.60672200  0.27288608  0.15681937    -0.10800
C545        C  0.59029723  0.23930834  0.14039505    -0.11600
C546        C  0.59986617  0.22443778  0.11279713     0.19900
C547        C  0.62592772  0.24336006  0.10171019    -0.13600
C548        C  0.64234894  0.27691349  0.11813032    -0.11900
C549        C  0.58326183  0.18915438  0.09607997     0.00900
C550        C  0.56983735  0.15866614  0.08231898    -0.31900
C551        C  0.64972300  0.32644261  0.16256860     0.02300
C552        C  0.66377258  0.35616470  0.17627941    -0.33600
H553        H  0.59910557  0.28410072  0.17812097     0.13300
H554        H  0.57022026  0.22485433  0.14923095     0.13100
H555        H  0.63358569  0.23206637  0.08043754     0.13000
H556        H  0.66246265  0.29125861  0.10931745     0.12000
C557        C  0.61080232  0.22274319  0.39585619     0.18400
C558        C  0.61398246  0.27178072  0.40562064    -0.10800
C559        C  0.63025830  0.30582784  0.38940230    -0.11600
C560        C  0.64345719  0.29098813  0.36334910     0.19900
C561        C  0.64025949  0.24196486  0.35357849    -0.13600
C562        C  0.62398099  0.20792718  0.36979015    -0.11900
C563        C  0.66023291  0.32601449  0.34665734     0.00900
C564        C  0.67407503  0.35574616  0.33276936    -0.31900
C565        C  0.59407220  0.18763025  0.41253996     0.02300
C566        C  0.58022885  0.15762723  0.42623178    -0.33600
H567        H  0.60390008  0.28366226  0.42573574     0.13300
H568        H  0.63256219  0.34364256  0.39716628     0.13100
H569        H  0.65034533  0.23007594  0.33346605     0.13000
H570        H  0.62167772  0.17011569  0.36202033     0.12000
C571        C  0.60114351  0.79102695  0.11371002     0.18400
C572        C  0.60071861  0.79328506  0.14416488    -0.10800
C573        C  0.61737408  0.75999001  0.16053717    -0.11600
C574        C  0.63456044  0.72432683  0.14652416     0.19900
C575        C  0.63501060  0.72213313  0.11607470    -0.13600
C576        C  0.61835513  0.75540389  0.09970960    -0.11900
C577        C  0.65140072  0.68951637  0.16330135     0.00900
C578        C  0.66515809  0.65926463  0.17688551    -0.31900
C579        C  0.58420303  0.82556313  0.09684291     0.02300
C580        C  0.57044545  0.85525070  0.08284068    -0.33600
H581        H  0.58753702  0.82074086  0.15522617     0.13300
H582        H  0.61681295  0.76198335  0.18406450     0.13100
H583        H  0.64817722  0.69466622  0.10500448     0.13000
H584        H  0.61890219  0.75336995  0.07618280     0.12000
C585        C  0.88361060  0.22259057  0.10303562     0.18400
C586        C  0.85538254  0.23504109  0.09438894    -0.10800
C587        C  0.83893841  0.26841407  0.11093583    -0.11600
C588        C  0.85061898  0.28950292  0.13623273     0.19900
C589        C  0.87885861  0.27708676  0.14485531    -0.13600
C590        C  0.89529998  0.24372282  0.12831066    -0.11900
C591        C  0.83382948  0.32438148  0.15308135     0.00900
C592        C  0.82016044  0.35451446  0.16688624    -0.31900
C593        C  0.90040001  0.18759785  0.08628127     0.02300
C594        C  0.91427435  0.15746274  0.07269572    -0.33600
H595        H  0.84608250  0.21889499  0.07492140     0.13300
H596        H  0.81716399  0.27779594  0.10400405     0.13100
H597        H  0.88816107  0.29321579  0.16432643     0.13000
H598        H  0.91707228  0.23433512  0.13524852     0.12000
C599        C  0.86110108  0.72171859  0.35388304     0.18400
C600        C  0.87937627  0.75564974  0.33980944    -0.10800
C601        C  0.89594789  0.78914364  0.35608865    -0.11600
C602        C  0.89435558  0.78882458  0.38652183     0.19900
C603        C  0.87611497  0.75483728  0.40061265    -0.13600
C604        C  0.85953053  0.72133947  0.38432671    -0.11900
C605        C  0.91110942  0.82383611  0.40320488     0.00900
C606        C  0.92474632  0.85411405  0.41686668    -0.31900
C607        C  0.84413113  0.68714418  0.33710350     0.02300
C608        C  0.83020065  0.65756895  0.32321136    -0.33600
H609        H  0.88078941  0.75623067  0.31629125     0.13300
H610        H  0.90993333  0.81532549  0.34496448     0.13100
H611        H  0.87466992  0.75432504  0.42412975     0.13000
H612        H  0.84549757  0.69522114  0.39544190     0.11200
C613        C  0.89434486  0.22331442  0.38608898     0.18400
C614        C  0.87878355  0.26100618  0.40018921    -0.10800
C615        C  0.86230466  0.29478580  0.38398198    -0.11600
C616        C  0.86127335  0.29102394  0.35359301     0.19900
C617        C  0.87685953  0.25335745  0.33949148    -0.13600
C618        C  0.89334177  0.21957968  0.35569950    -0.11900
C619        C  0.84434857  0.32591833  0.33692943     0.00900
C620        C  0.83037611  0.35576523  0.32323818    -0.31900
C621        C  0.91107271  0.18819361  0.40277392     0.02300
C622        C  0.92472031  0.15802886  0.41654392    -0.33600
H623        H  0.87935537  0.26422075  0.42367039     0.13300
H624        H  0.85037003  0.32377548  0.39512714     0.13100
H625        H  0.87625541  0.25009875  0.31601371     0.13000
H626        H  0.90524796  0.19054848  0.34456001     0.12000
C627        C  0.61140006  0.79129156  0.39559605     0.18400
C628        C  0.60382892  0.74087926  0.39503464    -0.10800
C629        C  0.62018080  0.70727605  0.37860994    -0.11600
C630        C  0.64419443  0.72391886  0.36267303     0.19900
C631        C  0.65176392  0.77434971  0.36321631    -0.13600
C632        C  0.63539566  0.80797137  0.37963583    -0.11900
C633        C  0.66102570  0.68918685  0.34585422     0.00900
C634        C  0.67473361  0.65918464  0.33204641    -0.31900
C635        C  0.59451226  0.82587159  0.41244817     0.02300
C636        C  0.58045634  0.85529148  0.42632097    -0.33600
H637        H  0.58531063  0.72758339  0.40726823     0.13300
H638        H  0.61412225  0.66837129  0.37834545     0.13100
H639        H  0.67028059  0.78763533  0.35097794     0.13000
H640        H  0.64143189  0.84688688  0.37989053     0.12000
C641        C  0.85089077  0.72237364  0.13553100     0.18400
C642        C  0.83772778  0.75097294  0.11373625    -0.10800
C643        C  0.85431958  0.78407578  0.09716938    -0.11600
C644        C  0.88415247  0.78873459  0.10230282     0.19900
C645        C  0.89731931  0.76007882  0.12405957    -0.13600
C646        C  0.88073420  0.72696989  0.14061434    -0.11900
C647        C  0.90110008  0.82357117  0.08564989     0.00900
C648        C  0.91492874  0.85382441  0.07214007    -0.31900
C649        C  0.83392675  0.68792111  0.15246139     0.02300
C650        C  0.82025552  0.65806566  0.16644520    -0.33600
H651        H  0.81468883  0.74768523  0.10956540     0.13300
H652        H  0.84389086  0.80611988  0.08044859     0.13100
H653        H  0.92034778  0.76343925  0.12827353     0.13000
H654        H  0.89116229  0.70499110  0.15736455     0.12000
C655        C  0.55469665  0.89198683  0.56658357     0.43800
N656        N  0.54631899  0.95204728  0.53734642     0.02700
C657        C  0.92227793  0.09694936  0.52965831    -0.05200
H658        H  0.90467932  0.90672770  0.51498165     0.08200
C659        C  0.96749677  0.91503200  0.92443125    -0.05500
Co660      Co  0.99173909  0.00620915  0.55253106     0.74200
N661        N  0.94177407  0.95199997  0.52609365    -0.24700
Co662      Co  0.94456579  0.00620594  0.99382500     0.74100
C663        C  0.94030520  0.89155260  0.93271809     0.43900
N664        N  0.53508517  0.95185667  0.95057189     0.02300
N665        N  0.94858998  0.95191945  0.96172598     0.02400
N666        N  0.95338950  0.09555492  0.56778575    -0.45600
H667        H  0.51312032  0.90720007  0.59273320     0.08200
N668        N  0.95973831  0.95180422  0.54846739     0.02700
N669        N  0.94860847  0.06052476  0.96168147     0.02400
C670        C  0.94033848  0.12080310  0.93256136     0.44000
N671        N  0.55307411  0.95207373  0.97292435    -0.24200
C672        C  0.52723930  0.09741130  0.57462570    -0.05100
N673        N  0.56545710  0.91686990  0.54354684    -0.45300
N674        N  0.92957105  0.09591299  0.95559100    -0.45500
C675        C  0.55442409  0.12100975  0.56642069     0.43800
N676        N  0.95962669  0.06043662  0.54856365     0.02700
N677        N  0.55307445  0.06041215  0.97281429    -0.24200
N678        N  0.52399812  0.95215214  0.55533932    -0.24700
N679        N  0.53512057  0.06045855  0.95043103     0.02300
H680        H  0.59026391  0.10559490  0.98372366     0.08200
H681        H  0.98185476  0.10543746  0.90632705     0.08200
N682        N  0.94167975  0.06028029  0.52617624    -0.24700
N683        N  0.97088197  0.95201324  0.94370060    -0.24400
N684        N  0.54624302  0.06064859  0.53732735     0.02700
C685        C  0.93080633  0.89134985  0.55663909     0.44100
C686        C  0.57233835  0.91517648  0.96953413    -0.05600
N687        N  0.97088996  0.06031392  0.94363519    -0.24400
H688        H  0.98183040  0.90671240  0.90646295     0.08200
N689        N  0.95370903  0.91630970  0.56751404    -0.45600
H690        H  0.59030606  0.90702224  0.98388072     0.08200
C691        C  0.56415571  0.12067307  0.94201173     0.43900
C692        C  0.52743377  0.91536589  0.57472484    -0.05100
Co693      Co  0.55029484  0.00631110  0.50518921     0.73800
N694        N  0.54117914  0.91653626  0.93145010    -0.45300
C695        C  0.93035106  0.12032094  0.55703103     0.44200
N696        N  0.56525293  0.09608831  0.54342397    -0.45300
Co697      Co  0.50308423  0.00615463  0.94647299     0.73900
C698        C  0.96751973  0.09722628  0.92431198    -0.05600
C699        C  0.92256876  0.91499290  0.52940361    -0.05200
N700        N  0.52392374  0.06044597  0.55533203    -0.24700
N701        N  0.92953745  0.91653980  0.95569786    -0.45500
H702        H  0.90430500  0.10504523  0.51530802     0.08200
C703        C  0.57233229  0.09730955  0.96935993    -0.05600
Cl704      Cl  0.49742389  0.00625366  0.49950807    -0.48600
C705        C  0.56412402  0.89163490  0.94225815     0.43900
H706        H  0.51285803  0.10565862  0.59256675     0.08100
N707        N  0.54121886  0.09568802  0.93124006    -0.45300
C708        C  0.80462583  0.62099911  0.68260119     0.43800
N709        N  0.79629127  0.56088871  0.71184616     0.02700
C710        C  0.67203518  0.41622297  0.71946094    -0.05200
H711        H  0.65472996  0.60647418  0.73404604     0.08200
C712        C  0.71749758  0.59830715  0.82447780    -0.05500
Co713      Co  0.74171408  0.50660561  0.69665364     0.74200
N714        N  0.69174742  0.56097104  0.72298909    -0.24700
Co715      Co  0.69445357  0.50682343  0.75527996     0.74100
C716        C  0.69037464  0.62195112  0.81609321     0.43900
N717        N  0.78496173  0.56096844  0.79871465     0.02300
N718        N  0.69849886  0.56116117  0.78732752     0.02400
N719        N  0.70321057  0.41738318  0.68139388    -0.45600
H720        H  0.76307431  0.60565418  0.65643233     0.08200
N721        N  0.70974924  0.56107490  0.70065160     0.02700
N722        N  0.69840547  0.45253413  0.78741584     0.02400
C723        C  0.68997291  0.39233759  0.81654090     0.44000
N724        N  0.80297572  0.56085202  0.77638255    -0.24200
C725        C  0.77730123  0.41534268  0.67463323    -0.05100
N726        N  0.81539061  0.59614875  0.70566195    -0.45300
N727        N  0.67927440  0.41730943  0.79351198    -0.45500
C728        C  0.80452583  0.39183857  0.68287022     0.43800
N729        N  0.70953673  0.45241777  0.70063932     0.02700
N730        N  0.80299178  0.45256029  0.77646596    -0.24200
N731        N  0.77399089  0.56069065  0.69381972    -0.24700
N732        N  0.78499364  0.45245329  0.79881289     0.02300
H733        H  0.84035070  0.40768294  0.76571257     0.08200
H734        H  0.73150756  0.40746000  0.84280701     0.08200
N735        N  0.69154160  0.45271501  0.72298309    -0.24700
N736        N  0.72077854  0.56105090  0.80536940    -0.24400
N737        N  0.79622194  0.45222991  0.71193662     0.02700
C738        C  0.68095669  0.62170923  0.69244007     0.44100
C739        C  0.82228380  0.59765142  0.77991422    -0.05600
N740        N  0.72068424  0.45261700  0.80546837    -0.24400
H741        H  0.73187168  0.60675800  0.84239447     0.08200
N742        N  0.70382907  0.59662425  0.68160747    -0.45600
H743        H  0.84030182  0.60582035  0.76563931     0.08200
C744        C  0.81420175  0.39252221  0.80738155     0.43900
C745        C  0.77740187  0.59749619  0.67443423    -0.05100
Co746      Co  0.80023048  0.50664100  0.74406404     0.73800
N747        N  0.79106022  0.59611741  0.81794013    -0.45300
C748        C  0.68008647  0.39279563  0.69210246     0.44200
N749        N  0.81528700  0.41686184  0.70586286    -0.45300
Co750      Co  0.75293095  0.50675277  0.80270519     0.73900
C751        C  0.71722243  0.41571621  0.82478576    -0.05600
C752        C  0.67261701  0.59808905  0.71964840    -0.05200
N753        N  0.77391103  0.45232687  0.69391500    -0.24700
N754        N  0.67954243  0.59676661  0.79321417    -0.45500
H755        H  0.65398466  0.40833745  0.73375021     0.08200
C756        C  0.82234783  0.41583364  0.78001016    -0.05600
Cl757      Cl  0.74734469  0.50669330  0.74967366    -0.48600
C758        C  0.81404848  0.62101131  0.80724772     0.43900
H759        H  0.76296401  0.40706243  0.65665852     0.08100
N760        N  0.79117574  0.41737337  0.81807627    -0.45300
C761        C  0.63282072  0.29171979  0.64574597     0.18400
C762        C  0.60672199  0.27288604  0.65681940    -0.10800
C763        C  0.59029728  0.23930830  0.64039506    -0.11600
C764        C  0.59986618  0.22443790  0.61279713     0.19900
C765        C  0.62592775  0.24336016  0.60171019    -0.13600
C766        C  0.64234896  0.27691363  0.61813032    -0.11900
C767        C  0.58326181  0.18915457  0.59607996     0.00900
C768        C  0.56983739  0.15866623  0.58231902    -0.31900
C769        C  0.64972295  0.32644263  0.66256862     0.02300
C770        C  0.66377256  0.35616478  0.67627933    -0.33600
H771        H  0.59910554  0.28410060  0.67812097     0.13300
H772        H  0.57022029  0.22485419  0.64923099     0.13100
H773        H  0.63358573  0.23206652  0.58043754     0.13000
H774        H  0.66246258  0.29125879  0.60931748     0.12000
C775        C  0.61080233  0.22274317  0.89585621     0.18400
C776        C  0.61398237  0.27178073  0.90562057    -0.10800
C777        C  0.63025816  0.30582787  0.88940220    -0.11600
C778        C  0.64345716  0.29098811  0.86334905     0.19900
C779        C  0.64025959  0.24196474  0.85357857    -0.13600
C780        C  0.62398113  0.20792707  0.86979026    -0.11900
C781        C  0.66023290  0.32601448  0.84665727     0.00900
C782        C  0.67407508  0.35574606  0.83276926    -0.31900
C783        C  0.59407229  0.18763021  0.91253998     0.02300
C784        C  0.58022898  0.15762718  0.92623180    -0.33600
H785        H  0.60389991  0.28366232  0.92573567     0.13300
H786        H  0.63256195  0.34364264  0.89716611     0.13100
H787        H  0.65034551  0.23007570  0.83346618     0.13000
H788        H  0.62167798  0.17011549  0.86202053     0.12000
C789        C  0.60114353  0.79102706  0.61371005     0.18400
C790        C  0.60071864  0.79328512  0.64416491    -0.10800
C791        C  0.61737402  0.75998992  0.66053719    -0.11600
C792        C  0.63456042  0.72432682  0.64652417     0.19900
C793        C  0.63501064  0.72213328  0.61607470    -0.13600
C794        C  0.61835508  0.75540392  0.59970964    -0.11900
C795        C  0.65140074  0.68951637  0.66330134     0.00900
C796        C  0.66515808  0.65926455  0.67688549    -0.31900
C797        C  0.58420310  0.82556330  0.59684295     0.02300
C798        C  0.57044545  0.85525071  0.58284068    -0.33600
H799        H  0.58753710  0.82074102  0.65522622     0.13300
H800        H  0.61681287  0.76198316  0.68406452     0.13100
H801        H  0.64817732  0.69466647  0.60500446     0.13000
H802        H  0.61890206  0.75336992  0.57618278     0.12000
C803        C  0.88361056  0.22259050  0.60303553     0.18400
C804        C  0.85538248  0.23504101  0.59438890    -0.10800
C805        C  0.83893843  0.26841404  0.61093583    -0.11600
C806        C  0.85061901  0.28950291  0.63623271     0.19900
C807        C  0.87885867  0.27708672  0.64485528    -0.13600
C808        C  0.89529997  0.24372278  0.62831053    -0.11900
C809        C  0.83382947  0.32438154  0.65308128     0.00900
C810        C  0.82016040  0.35451452  0.66688615    -0.31900
C811        C  0.90039995  0.18759776  0.58628121     0.02300
C812        C  0.91427439  0.15746271  0.57269575    -0.33600
H813        H  0.84608236  0.21889493  0.57492141     0.13300
H814        H  0.81716401  0.27779597  0.60400408     0.13100
H815        H  0.88816118  0.29321569  0.66432631     0.13000
H816        H  0.91707236  0.23433502  0.63524833     0.12000
C817        C  0.86110104  0.72171868  0.85388301     0.18400
C818        C  0.87937618  0.75564990  0.83980944    -0.10800
C819        C  0.89594781  0.78914381  0.85608866    -0.11600
C820        C  0.89435554  0.78882461  0.88652185     0.19900
C821        C  0.87611496  0.75483725  0.90061266    -0.13600
C822        C  0.85953055  0.72133938  0.88432669    -0.11900
C823        C  0.91110944  0.82383608  0.90320489     0.00900
C824        C  0.92474624  0.85411414  0.91686668    -0.31900
C825        C  0.84413118  0.68714419  0.83710342     0.02300
C826        C  0.83020066  0.65756893  0.82321135    -0.33600
H827        H  0.88078934  0.75623088  0.81629125     0.13300
H828        H  0.90993317  0.81532565  0.84496452     0.13100
H829        H  0.87466994  0.75432490  0.92412976     0.13000
H830        H  0.84549770  0.69522087  0.89544187     0.11200
C831        C  0.89434479  0.22331439  0.88608895     0.18400
C832        C  0.87878346  0.26100612  0.90018921    -0.10800
C833        C  0.86230455  0.29478576  0.88398200    -0.11600
C834        C  0.86127324  0.29102399  0.85359302     0.19900
C835        C  0.87685947  0.25335763  0.83949147    -0.13600
C836        C  0.89334171  0.21957983  0.85569946    -0.11900
C837        C  0.84434847  0.32591837  0.83692946     0.00900
C838        C  0.83037606  0.35576533  0.82323823    -0.31900
C839        C  0.91107263  0.18819350  0.90277390     0.02300
C840        C  0.92472027  0.15802879  0.91654391    -0.33600
H841        H  0.87935528  0.26422061  0.92367038     0.13300
H842        H  0.85036992  0.32377541  0.89512720     0.13100
H843        H  0.87625535  0.25009908  0.81601368     0.13000
H844        H  0.90524793  0.19054864  0.84455989     0.12000
C845        C  0.61140003  0.79129152  0.89559603     0.18400
C846        C  0.60382881  0.74087927  0.89503452    -0.10800
C847        C  0.62018072  0.70727595  0.87860990    -0.11600
C848        C  0.64419438  0.72391881  0.86267301     0.19900
C849        C  0.65176389  0.77434963  0.86321634    -0.13600
C850        C  0.63539569  0.80797129  0.87963588    -0.11900
C851        C  0.66102569  0.68918689  0.84585420     0.00900
C852        C  0.67473364  0.65918470  0.83204643    -0.31900
C853        C  0.59451229  0.82587156  0.91244820     0.02300
C854        C  0.58045628  0.85529139  0.92632095    -0.33600
H855        H  0.58531044  0.72758344  0.90726806     0.13300
H856        H  0.61412219  0.66837128  0.87834540     0.13100
H857        H  0.67028062  0.78763522  0.85097798     0.13000
H858        H  0.64143200  0.84688676  0.87989067     0.12000
C859        C  0.85089077  0.72237383  0.63553102     0.18400
C860        C  0.83772776  0.75097299  0.61373618    -0.10800
C861        C  0.85431964  0.78407567  0.59716926    -0.11600
C862        C  0.88415250  0.78873461  0.60230279     0.19900
C863        C  0.89731935  0.76007901  0.62405961    -0.13600
C864        C  0.88073419  0.72697014  0.64061438    -0.11900
C865        C  0.90110016  0.82357110  0.58564988     0.00900
C866        C  0.91492883  0.85382432  0.57214008    -0.31900
C867        C  0.83392676  0.68792124  0.65246140     0.02300
C868        C  0.82025555  0.65806575  0.66644522    -0.33600
H869        H  0.81468890  0.74768524  0.60956533     0.13300
H870        H  0.84389093  0.80611959  0.58044837     0.13100
H871        H  0.92034773  0.76343944  0.62827355     0.13000
H872        H  0.89116232  0.70499134  0.65736462     0.12000
loop_ 
_geom_bond_atom_site_label_1 
_geom_bond_atom_site_label_2 
_geom_bond_distance 
_geom_bond_site_symmetry_2 
_ccdc_geom_bond_type 
C1           N19   1.348       .  A
C1           C38   1.455       .  S
C1          C144   1.436       .  S
N2           N19   1.325       .  A
N2           N24   1.321       .  A
N2          Co39   2.086   1_565  S
C3           N28   1.341       .  A
C3           C41   1.455       .  S
C3           H48   1.082       .  S
H4           C45   1.082       .  S
C5           N29   1.341       .  A
C5            C9   1.455       .  S
C5           H34   1.082       .  S
Co6          N14   2.087   1_545  S
Co6          N22   2.087       .  S
Co6         N460   2.084   1_545  S
Co6         N482   2.086       .  S
Co6        Cl486   2.452   1_554  S
N7           C45   1.341       .  A
N7           N14   1.321       .  A
N7         Co226   2.084   1_564  S
Co8          N11   2.085   1_545  S
Co8          N15   2.087       .  S
Co8         N225   2.084   1_545  S
Co8         N246   2.085       .  S
Co8        Cl704   2.452       .  S
C9           N47   1.347       .  A
C9          C170   1.436       .  S
N10          N17   1.321       .  A
N10          N40   1.325       .  A
N10         Co43   2.085   1_565  S
N11          N29   1.321       .  A
N11          N47   1.325       .  A
N12          C41   1.348       .  A
N12          N22   1.325       .  A
H13          C38   1.082       .  S
N14          N35   1.325       .  A
N15          N33   1.321       .  A
N15          N20   1.325       .  A
C16          N20   1.348       .  A
C16          C44   1.455       .  S
C16         C186   1.437       .  S
N17          C32   1.341       .  A
N17        Co257   2.085   1_565  S
C18          N46   1.341       .  A
C18          C21   1.455       .  S
C18          H52   1.082       .  S
C21          N42   1.348       .  A
C21         C114   1.437       .  S
N22          N28   1.321       .  A
N23          C49   1.342       .  A
N23          N25   1.321       .  A
N23        Co257   2.086       .  S
N24          C38   1.341       .  A
N24        Co442   2.084   1_465  S
N25          N53   1.325       .  A
N25         Co43   2.086       .  S
H26          C49   1.082       .  S
H27          C44   1.082       .  S
N28        Co226   2.085   1_554  S
N29        Co479   2.084   1_565  S
N30          N42   1.325       .  A
N30          N46   1.321       .  A
N30         Co39   2.087       .  S
C31          N35   1.348       .  A
C31          C45   1.455       .  S
C31         C212   1.437       .  S
C32          C51   1.455       .  S
C32          H36   1.082       .  S
N33          C44   1.341       .  A
N33        Co479   2.084       .  S
C37          N53   1.348       .  A
C37          C49   1.455       .  S
C37         C130   1.437       .  S
Co39        N235   2.085   1_544  S
Co39        N241   2.086   1_554  S
Co39        Cl50   2.452   1_454  S
N40          C51   1.347       .  A
C41         C158   1.438       .  S
Co43        N465   2.084   1_445  S
Co43        N469   2.084   1_455  S
Co43       Cl268   2.452   1_455  S
N46        Co442   2.086   1_455  S
Cl50       Co442   2.452   1_556  S
Cl50       Co662   2.452       .  S
Cl50       Co261   2.452   1_655  S
C51         C200   1.435       .  S
C54          N72   1.348       .  A
C54          C91   1.455       .  S
C54         C214   1.437       .  S
N55          N72   1.325       .  A
N55          N77   1.321       .  A
N55         Co92   2.087       .  S
C56          N81   1.341       .  A
C56          C94   1.455       .  S
C56         H101   1.082       .  S
H57          C98   1.082       .  S
C58          N82   1.341       .  A
C58          C62   1.455       .  S
C58          H87   1.082       .  S
Co59         N77   2.086       .  S
Co59         N67   2.087       .  S
Co59         N99   2.086       .  S
Co59         N75   2.088       .  S
Co59       Cl103   2.452       .  S
N60          C98   1.341       .  A
N60          N67   1.321       .  A
N60         Co61   2.084       .  S
Co61         N64   2.084       .  S
Co61         N81   2.084       .  S
Co61         N68   2.086       .  S
Co61       Cl103   2.453       .  S
C62         N100   1.347       .  A
C62         C198   1.436       .  S
N63          N70   1.321       .  A
N63          N93   1.325       .  A
N63         Co96   2.084       .  S
N64          N82   1.321       .  A
N64         N100   1.325       .  A
N65          C94   1.348       .  A
N65          N75   1.325       .  A
H66          C91   1.082       .  S
N67          N88   1.325       .  A
N68          N86   1.321       .  A
N68          N73   1.325       .  A
C69          N73   1.347       .  A
C69          C97   1.456       .  S
C69         C128   1.437       .  S
N70          C85   1.342       .  A
N70         Co92   2.086       .  S
C71          N99   1.342       .  A
C71          C74   1.456       .  S
C71         H105   1.082       .  S
C74          N95   1.348       .  A
C74         C156   1.438       .  S
N75          N81   1.321       .  A
N76         C102   1.342       .  A
N76          N78   1.321       .  A
N76         Co92   2.086       .  S
N77          C91   1.342       .  A
N78         N106   1.325       .  A
N78         Co96   2.086       .  S
H79         C102   1.082       .  S
H80          C97   1.082       .  S
N82         Co96   2.085       .  S
N83          N95   1.325       .  A
N83          N99   1.321       .  A
N83         Co92   2.088       .  S
C84          N88   1.348       .  A
C84          C98   1.455       .  S
C84         C142   1.436       .  S
C85         C104   1.456       .  S
C85          H89   1.082       .  S
N86          C97   1.342       .  A
N86         Co96   2.086       .  S
C90         N106   1.348       .  A
C90         C102   1.455       .  S
C90         C184   1.437       .  S
Co92       Cl103   2.453       .  S
N93         C104   1.347       .  A
C94         C116   1.438       .  S
Co96       Cl103   2.452       .  S
C104        C172   1.436       .  S
C107        C115   1.442       .  S
C107        C108   1.402       .  A
C107        C112   1.401       .  A
C108        H117   1.083       .  S
C108        C109   1.400       .  A
C109        H118   1.083       .  S
C109        C110   1.402       .  A
C110        C113   1.442       .  S
C110        C111   1.401       .  A
C111        H119   1.083       .  S
C111        C112   1.399       .  A
C112        H120   1.083       .  S
C113        C114   1.207       .  T
C115        C116   1.207       .  T
C121        C129   1.441       .  S
C121        C122   1.401       .  A
C121        C126   1.402       .  A
C122        H131   1.083       .  S
C122        C123   1.400       .  A
C123        H132   1.083       .  S
C123        C124   1.402       .  A
C124        C127   1.441       .  S
C124        C125   1.401       .  A
C125        H133   1.083       .  S
C125        C126   1.399       .  A
C126        H134   1.083       .  S
C127        C128   1.206       .  T
C129        C130   1.206       .  T
C135        C143   1.440       .  S
C135        C136   1.402       .  A
C135        C140   1.401       .  A
C136        H145   1.083       .  S
C136        C137   1.400       .  A
C137        H146   1.083       .  S
C137        C138   1.401       .  A
C138        C141   1.441       .  S
C138        C139   1.401       .  A
C139        H147   1.083       .  S
C139        C140   1.399       .  A
C140        H148   1.083       .  S
C141        C142   1.206       .  T
C143        C144   1.206       .  T
C149        C157   1.442       .  S
C149        C150   1.402       .  A
C149        C154   1.402       .  A
C150        H159   1.083       .  S
C150        C151   1.400       .  A
C151        H160   1.083       .  S
C151        C152   1.402       .  A
C152        C155   1.442       .  S
C152        C153   1.402       .  A
C153        H161   1.083       .  S
C153        C154   1.400       .  A
C154        H162   1.083       .  S
C155        C156   1.207       .  T
C157        C158   1.207       .  T
C163        C171   1.440       .  S
C163        C164   1.401       .  A
C163        C168   1.402       .  A
C164        H173   1.083       .  S
C164        C165   1.399       .  A
C165        H174   1.083       .  S
C165        C166   1.401       .  A
C166        C169   1.440       .  S
C166        C167   1.401       .  A
C167        H175   1.083       .  S
C167        C168   1.399       .  A
C168        H176   1.083       .  S
C169        C170   1.206       .  T
C171        C172   1.206       .  T
C177        C185   1.441       .  S
C177        C178   1.401       .  A
C177        C182   1.402       .  A
C178        H187   1.083       .  S
C178        C179   1.399       .  A
C179        H188   1.083       .  S
C179        C180   1.402       .  A
C180        C183   1.441       .  S
C180        C181   1.401       .  A
C181        H189   1.083       .  S
C181        C182   1.400       .  A
C182        H190   1.083       .  S
C183        C184   1.207       .  T
C185        C186   1.206       .  T
C191        C199   1.440       .  S
C191        C192   1.401       .  A
C191        C196   1.402       .  A
C192        H201   1.083       .  S
C192        C193   1.399       .  A
C193        H202   1.083       .  S
C193        C194   1.402       .  A
C194        C197   1.440       .  S
C194        C195   1.401       .  A
C195        H203   1.083       .  S
C195        C196   1.399       .  A
C196        H204   1.083       .  S
C197        C198   1.206       .  T
C199        C200   1.206       .  T
C205        C213   1.441       .  S
C205        C206   1.402       .  A
C205        C210   1.402       .  A
C206        H215   1.083       .  S
C206        C207   1.400       .  A
C207        H216   1.083       .  S
C207        C208   1.402       .  A
C208        C211   1.441       .  S
C208        C209   1.401       .  A
C209        H217   1.083       .  S
C209        C210   1.399       .  A
C210        H218   1.083       .  S
C211        C212   1.206       .  T
C213        C214   1.207       .  T
C219        N237   1.348       .  A
C219        C256   1.455       .  S
C219        C362   1.436       .  S
N220        N237   1.325       .  A
N220        N242   1.321       .  A
N220       Co257   2.086   1_565  S
C221        N246   1.341       .  A
C221        C259   1.455       .  S
C221        H266   1.082       .  S
H222        C263   1.082       .  S
C223        N247   1.341       .  A
C223        C227   1.455       .  S
C223        H252   1.082       .  S
Co224       N678   2.084   1_545  S
Co224       N232   2.087   1_545  S
Co224       N700   2.086       .  S
Co224       N240   2.087       .  S
Co224      Cl704   2.452       .  S
N225        C263   1.341       .  A
N225        N232   1.321       .  A
Co226       N229   2.085   1_545  S
Co226       N233   2.087       .  S
Co226      Cl486   2.452       .  S
C227        N265   1.347       .  A
C227        C388   1.436       .  S
N228        N235   1.321       .  A
N228        N258   1.325       .  A
N228       Co261   2.085   1_565  S
N229        N247   1.321       .  A
N229        N265   1.325       .  A
N230        C259   1.348       .  A
N230        N240   1.325       .  A
H231        C256   1.082       .  S
N232        N253   1.325       .  A
N233        N251   1.321       .  A
N233        N238   1.325       .  A
C234        N238   1.348       .  A
C234        C262   1.455       .  S
C234        C404   1.437       .  S
N235        C250   1.341       .  A
C236        N264   1.341       .  A
C236        C239   1.455       .  S
C236        H270   1.082       .  S
C239        N260   1.348       .  A
C239        C332   1.437       .  S
N240        N246   1.321       .  A
N241        C267   1.342       .  A
N241        N243   1.321       .  A
N242        C256   1.341       .  A
N242       Co660   2.084   1_465  S
N243        N271   1.325       .  A
N243       Co261   2.086       .  S
H244        C267   1.082       .  S
H245        C262   1.082       .  S
N247       Co697   2.084   1_565  S
N248        N260   1.325       .  A
N248        N264   1.321       .  A
N248       Co257   2.087       .  S
C249        N253   1.348       .  A
C249        C263   1.455       .  S
C249        C430   1.437       .  S
C250        C269   1.455       .  S
C250        H254   1.082       .  S
N251        C262   1.341       .  A
N251       Co697   2.084       .  S
C255        N271   1.348       .  A
C255        C267   1.455       .  S
C255        C348   1.437       .  S
Co257      Cl268   2.452   1_455  S
N258        C269   1.347       .  A
C259        C376   1.438       .  S
Co261       N683   2.084   1_445  S
Co261       N687   2.084   1_455  S
N264       Co660   2.086   1_455  S
Cl268      Co660   2.452       .  S
Cl268      Co444   2.452       .  S
C269        C418   1.435       .  S
C272        N290   1.348       .  A
C272        C309   1.455       .  S
C272        C432   1.437       .  S
N273        N290   1.325       .  A
N273        N295   1.321       .  A
N273       Co310   2.087       .  S
C274        N299   1.341       .  A
C274        C312   1.455       .  S
C274        H319   1.082       .  S
H275        C316   1.082       .  S
C276        N300   1.341       .  A
C276        C280   1.455       .  S
C276        H305   1.082       .  S
Co277       N295   2.086       .  S
Co277       N285   2.087       .  S
Co277       N317   2.086       .  S
Co277       N293   2.088       .  S
Co277      Cl321   2.452       .  S
N278        C316   1.341       .  A
N278        N285   1.321       .  A
N278       Co279   2.084       .  S
Co279       N282   2.084       .  S
Co279       N299   2.084       .  S
Co279       N286   2.086       .  S
Co279      Cl321   2.453       .  S
C280        N318   1.347       .  A
C280        C416   1.436       .  S
N281        N288   1.321       .  A
N281        N311   1.325       .  A
N281       Co314   2.084       .  S
N282        N300   1.321       .  A
N282        N318   1.325       .  A
N283        C312   1.348       .  A
N283        N293   1.325       .  A
H284        C309   1.082       .  S
N285        N306   1.325       .  A
N286        N304   1.321       .  A
N286        N291   1.325       .  A
C287        N291   1.347       .  A
C287        C315   1.456       .  S
C287        C346   1.437       .  S
N288        C303   1.342       .  A
N288       Co310   2.086       .  S
C289        N317   1.342       .  A
C289        C292   1.456       .  S
C289        H323   1.082       .  S
C292        N313   1.348       .  A
C292        C374   1.438       .  S
N293        N299   1.321       .  A
N294        C320   1.342       .  A
N294        N296   1.321       .  A
N294       Co310   2.086       .  S
N295        C309   1.342       .  A
N296        N324   1.325       .  A
N296       Co314   2.086       .  S
H297        C320   1.082       .  S
H298        C315   1.082       .  S
N300       Co314   2.085       .  S
N301        N313   1.325       .  A
N301        N317   1.321       .  A
N301       Co310   2.088       .  S
C302        N306   1.348       .  A
C302        C316   1.455       .  S
C302        C360   1.436       .  S
C303        C322   1.456       .  S
C303        H307   1.082       .  S
N304        C315   1.342       .  A
N304       Co314   2.086       .  S
C308        N324   1.348       .  A
C308        C320   1.455       .  S
C308        C402   1.437       .  S
Co310      Cl321   2.453       .  S
N311        C322   1.347       .  A
C312        C334   1.438       .  S
Co314      Cl321   2.452       .  S
C322        C390   1.436       .  S
C325        C333   1.442       .  S
C325        C326   1.402       .  A
C325        C330   1.401       .  A
C326        H335   1.083       .  S
C326        C327   1.400       .  A
C327        H336   1.083       .  S
C327        C328   1.402       .  A
C328        C331   1.442       .  S
C328        C329   1.401       .  A
C329        H337   1.083       .  S
C329        C330   1.399       .  A
C330        H338   1.083       .  S
C331        C332   1.207       .  T
C333        C334   1.207       .  T
C339        C347   1.441       .  S
C339        C340   1.401       .  A
C339        C344   1.402       .  A
C340        H349   1.083       .  S
C340        C341   1.400       .  A
C341        H350   1.083       .  S
C341        C342   1.402       .  A
C342        C345   1.441       .  S
C342        C343   1.401       .  A
C343        H351   1.083       .  S
C343        C344   1.399       .  A
C344        H352   1.083       .  S
C345        C346   1.206       .  T
C347        C348   1.206       .  T
C353        C361   1.440       .  S
C353        C354   1.402       .  A
C353        C358   1.401       .  A
C354        H363   1.083       .  S
C354        C355   1.400       .  A
C355        H364   1.083       .  S
C355        C356   1.401       .  A
C356        C359   1.441       .  S
C356        C357   1.401       .  A
C357        H365   1.083       .  S
C357        C358   1.399       .  A
C358        H366   1.083       .  S
C359        C360   1.206       .  T
C361        C362   1.206       .  T
C367        C375   1.442       .  S
C367        C368   1.402       .  A
C367        C372   1.402       .  A
C368        H377   1.083       .  S
C368        C369   1.400       .  A
C369        H378   1.083       .  S
C369        C370   1.402       .  A
C370        C373   1.442       .  S
C370        C371   1.402       .  A
C371        H379   1.083       .  S
C371        C372   1.400       .  A
C372        H380   1.083       .  S
C373        C374   1.207       .  T
C375        C376   1.207       .  T
C381        C389   1.440       .  S
C381        C382   1.401       .  A
C381        C386   1.402       .  A
C382        H391   1.083       .  S
C382        C383   1.399       .  A
C383        H392   1.083       .  S
C383        C384   1.401       .  A
C384        C387   1.440       .  S
C384        C385   1.401       .  A
C385        H393   1.083       .  S
C385        C386   1.399       .  A
C386        H394   1.083       .  S
C387        C388   1.206       .  T
C389        C390   1.206       .  T
C395        C403   1.441       .  S
C395        C396   1.401       .  A
C395        C400   1.402       .  A
C396        H405   1.083       .  S
C396        C397   1.399       .  A
C397        H406   1.083       .  S
C397        C398   1.402       .  A
C398        C401   1.441       .  S
C398        C399   1.401       .  A
C399        H407   1.083       .  S
C399        C400   1.400       .  A
C400        H408   1.083       .  S
C401        C402   1.207       .  T
C403        C404   1.206       .  T
C409        C417   1.440       .  S
C409        C410   1.401       .  A
C409        C414   1.402       .  A
C410        H419   1.083       .  S
C410        C411   1.399       .  A
C411        H420   1.083       .  S
C411        C412   1.402       .  A
C412        C415   1.440       .  S
C412        C413   1.401       .  A
C413        H421   1.083       .  S
C413        C414   1.399       .  A
C414        H422   1.083       .  S
C415        C416   1.206       .  T
C417        C418   1.206       .  T
C423        C431   1.441       .  S
C423        C424   1.402       .  A
C423        C428   1.402       .  A
C424        H433   1.083       .  S
C424        C425   1.400       .  A
C425        H434   1.083       .  S
C425        C426   1.402       .  A
C426        C429   1.441       .  S
C426        C427   1.401       .  A
C427        H435   1.083       .  S
C427        C428   1.399       .  A
C428        H436   1.083       .  S
C429        C430   1.206       .  T
C431        C432   1.207       .  T
C437        N455   1.348       .  A
C437        C474   1.455       .  S
C437        C580   1.436       .  S
N438        N455   1.325       .  A
N438        N460   1.321       .  A
N438       Co475   2.086   1_565  S
C439        N464   1.341       .  A
C439        C477   1.455       .  S
C439        H484   1.082       .  S
H440        C481   1.082       .  S
C441        N465   1.341       .  A
C441        C445   1.455       .  S
C441        H470   1.082       .  S
Co442       N450   2.087   1_545  S
Co442       N458   2.087       .  S
N443        C481   1.341       .  A
N443        N450   1.321       .  A
N443       Co662   2.084   1_564  S
Co444       N661   2.084   1_545  S
Co444       N447   2.085   1_545  S
Co444       N682   2.085       .  S
Co444       N451   2.087       .  S
C445        N483   1.347       .  A
C445        C606   1.436       .  S
N446        N453   1.321       .  A
N446        N476   1.325       .  A
N446       Co479   2.085   1_565  S
N447        N465   1.321       .  A
N447        N483   1.325       .  A
N448        C477   1.348       .  A
N448        N458   1.325       .  A
H449        C474   1.082       .  S
N450        N471   1.325       .  A
N451        N469   1.321       .  A
N451        N456   1.325       .  A
C452        N456   1.348       .  A
C452        C480   1.455       .  S
C452        C622   1.437       .  S
N453        C468   1.341       .  A
N453       Co693   2.085   1_565  S
C454        N482   1.341       .  A
C454        C457   1.455       .  S
C454        H488   1.082       .  S
C457        N478   1.348       .  A
C457        C550   1.437       .  S
N458        N464   1.321       .  A
N459        C485   1.342       .  A
N459        N461   1.321       .  A
N459       Co693   2.086       .  S
N460        C474   1.341       .  A
N461        N489   1.325       .  A
N461       Co479   2.086       .  S
H462        C485   1.082       .  S
H463        C480   1.082       .  S
N464       Co662   2.085   1_554  S
N466        N478   1.325       .  A
N466        N482   1.321       .  A
N466       Co475   2.087       .  S
C467        N471   1.348       .  A
C467        C481   1.455       .  S
C467        C648   1.437       .  S
C468        C487   1.455       .  S
C468        H472   1.082       .  S
N469        C480   1.341       .  A
C473        N489   1.348       .  A
C473        C485   1.455       .  S
C473        C566   1.437       .  S
Co475       N671   2.085   1_544  S
Co475       N677   2.086   1_554  S
Co475      Cl486   2.452   1_554  S
N476        C487   1.347       .  A
C477        C594   1.438       .  S
Co479      Cl704   2.452       .  S
Cl486      Co697   2.452       .  S
C487        C636   1.435       .  S
C490        N508   1.348       .  A
C490        C527   1.455       .  S
C490        C650   1.437       .  S
N491        N508   1.325       .  A
N491        N513   1.321       .  A
N491       Co528   2.087       .  S
C492        N517   1.341       .  A
C492        C530   1.455       .  S
C492        H537   1.082       .  S
H493        C534   1.082       .  S
C494        N518   1.341       .  A
C494        C498   1.455       .  S
C494        H523   1.082       .  S
Co495       N513   2.086       .  S
Co495       N503   2.087       .  S
Co495       N535   2.086       .  S
Co495       N511   2.088       .  S
Co495      Cl539   2.452       .  S
N496        C534   1.341       .  A
N496        N503   1.321       .  A
N496       Co497   2.084       .  S
Co497       N500   2.084       .  S
Co497       N517   2.084       .  S
Co497       N504   2.086       .  S
Co497      Cl539   2.453       .  S
C498        N536   1.347       .  A
C498        C634   1.436       .  S
N499        N506   1.321       .  A
N499        N529   1.325       .  A
N499       Co532   2.084       .  S
N500        N518   1.321       .  A
N500        N536   1.325       .  A
N501        C530   1.348       .  A
N501        N511   1.325       .  A
H502        C527   1.082       .  S
N503        N524   1.325       .  A
N504        N522   1.321       .  A
N504        N509   1.325       .  A
C505        N509   1.347       .  A
C505        C533   1.456       .  S
C505        C564   1.437       .  S
N506        C521   1.342       .  A
N506       Co528   2.086       .  S
C507        N535   1.342       .  A
C507        C510   1.456       .  S
C507        H541   1.082       .  S
C510        N531   1.348       .  A
C510        C592   1.438       .  S
N511        N517   1.321       .  A
N512        C538   1.342       .  A
N512        N514   1.321       .  A
N512       Co528   2.086       .  S
N513        C527   1.342       .  A
N514        N542   1.325       .  A
N514       Co532   2.086       .  S
H515        C538   1.082       .  S
H516        C533   1.082       .  S
N518       Co532   2.085       .  S
N519        N531   1.325       .  A
N519        N535   1.321       .  A
N519       Co528   2.088       .  S
C520        N524   1.348       .  A
C520        C534   1.455       .  S
C520        C578   1.436       .  S
C521        C540   1.456       .  S
C521        H525   1.082       .  S
N522        C533   1.342       .  A
N522       Co532   2.086       .  S
C526        N542   1.348       .  A
C526        C538   1.455       .  S
C526        C620   1.437       .  S
Co528      Cl539   2.453       .  S
N529        C540   1.347       .  A
C530        C552   1.438       .  S
Co532      Cl539   2.452       .  S
C540        C608   1.436       .  S
C543        C551   1.442       .  S
C543        C544   1.402       .  A
C543        C548   1.401       .  A
C544        H553   1.083       .  S
C544        C545   1.400       .  A
C545        H554   1.083       .  S
C545        C546   1.402       .  A
C546        C549   1.442       .  S
C546        C547   1.401       .  A
C547        H555   1.083       .  S
C547        C548   1.399       .  A
C548        H556   1.083       .  S
C549        C550   1.207       .  T
C551        C552   1.207       .  T
C557        C565   1.441       .  S
C557        C558   1.401       .  A
C557        C562   1.402       .  A
C558        H567   1.083       .  S
C558        C559   1.400       .  A
C559        H568   1.083       .  S
C559        C560   1.402       .  A
C560        C563   1.441       .  S
C560        C561   1.401       .  A
C561        H569   1.083       .  S
C561        C562   1.399       .  A
C562        H570   1.083       .  S
C563        C564   1.206       .  T
C565        C566   1.206       .  T
C571        C579   1.440       .  S
C571        C572   1.402       .  A
C571        C576   1.401       .  A
C572        H581   1.083       .  S
C572        C573   1.400       .  A
C573        H582   1.083       .  S
C573        C574   1.401       .  A
C574        C577   1.441       .  S
C574        C575   1.401       .  A
C575        H583   1.083       .  S
C575        C576   1.399       .  A
C576        H584   1.083       .  S
C577        C578   1.206       .  T
C579        C580   1.206       .  T
C585        C593   1.442       .  S
C585        C586   1.402       .  A
C585        C590   1.402       .  A
C586        H595   1.083       .  S
C586        C587   1.400       .  A
C587        H596   1.083       .  S
C587        C588   1.402       .  A
C588        C591   1.442       .  S
C588        C589   1.402       .  A
C589        H597   1.083       .  S
C589        C590   1.400       .  A
C590        H598   1.083       .  S
C591        C592   1.207       .  T
C593        C594   1.207       .  T
C599        C607   1.440       .  S
C599        C600   1.401       .  A
C599        C604   1.402       .  A
C600        H609   1.083       .  S
C600        C601   1.399       .  A
C601        H610   1.083       .  S
C601        C602   1.401       .  A
C602        C605   1.440       .  S
C602        C603   1.401       .  A
C603        H611   1.083       .  S
C603        C604   1.399       .  A
C604        H612   1.083       .  S
C605        C606   1.206       .  T
C607        C608   1.206       .  T
C613        C621   1.441       .  S
C613        C614   1.401       .  A
C613        C618   1.402       .  A
C614        H623   1.083       .  S
C614        C615   1.399       .  A
C615        H624   1.083       .  S
C615        C616   1.402       .  A
C616        C619   1.441       .  S
C616        C617   1.401       .  A
C617        H625   1.083       .  S
C617        C618   1.400       .  A
C618        H626   1.083       .  S
C619        C620   1.207       .  T
C621        C622   1.206       .  T
C627        C635   1.440       .  S
C627        C628   1.401       .  A
C627        C632   1.402       .  A
C628        H637   1.083       .  S
C628        C629   1.399       .  A
C629        H638   1.083       .  S
C629        C630   1.402       .  A
C630        C633   1.440       .  S
C630        C631   1.401       .  A
C631        H639   1.083       .  S
C631        C632   1.399       .  A
C632        H640   1.083       .  S
C633        C634   1.206       .  T
C635        C636   1.206       .  T
C641        C649   1.441       .  S
C641        C642   1.402       .  A
C641        C646   1.402       .  A
C642        H651   1.083       .  S
C642        C643   1.400       .  A
C643        H652   1.083       .  S
C643        C644   1.402       .  A
C644        C647   1.441       .  S
C644        C645   1.401       .  A
C645        H653   1.083       .  S
C645        C646   1.399       .  A
C646        H654   1.083       .  S
C647        C648   1.206       .  T
C649        C650   1.207       .  T
C655        N673   1.348       .  A
C655        C692   1.455       .  S
C655        C798   1.436       .  S
N656        N673   1.325       .  A
N656        N678   1.321       .  A
N656       Co693   2.086   1_565  S
C657        N682   1.341       .  A
C657        C695   1.455       .  S
C657        H702   1.082       .  S
H658        C699   1.082       .  S
C659        N683   1.341       .  A
C659        C663   1.455       .  S
C659        H688   1.082       .  S
Co660       N668   2.087   1_545  S
Co660       N676   2.087       .  S
N661        C699   1.341       .  A
N661        N668   1.321       .  A
Co662       N665   2.085   1_545  S
Co662       N669   2.087       .  S
C663        N701   1.347       .  A
C663        C824   1.436       .  S
N664        N671   1.321       .  A
N664        N694   1.325       .  A
N664       Co697   2.085   1_565  S
N665        N683   1.321       .  A
N665        N701   1.325       .  A
N666        C695   1.348       .  A
N666        N676   1.325       .  A
H667        C692   1.082       .  S
N668        N689   1.325       .  A
N669        N687   1.321       .  A
N669        N674   1.325       .  A
C670        N674   1.348       .  A
C670        C698   1.455       .  S
C670        C840   1.437       .  S
N671        C686   1.341       .  A
C672        N700   1.341       .  A
C672        C675   1.455       .  S
C672        H706   1.082       .  S
C675        N696   1.348       .  A
C675        C768   1.437       .  S
N676        N682   1.321       .  A
N677        C703   1.342       .  A
N677        N679   1.321       .  A
N678        C692   1.341       .  A
N679        N707   1.325       .  A
N679       Co697   2.086       .  S
H680        C703   1.082       .  S
H681        C698   1.082       .  S
N684        N696   1.325       .  A
N684        N700   1.321       .  A
N684       Co693   2.087       .  S
C685        N689   1.348       .  A
C685        C699   1.455       .  S
C685        C866   1.437       .  S
C686        C705   1.455       .  S
C686        H690   1.082       .  S
N687        C698   1.341       .  A
C691        N707   1.348       .  A
C691        C703   1.455       .  S
C691        C784   1.437       .  S
Co693      Cl704   2.452       .  S
N694        C705   1.347       .  A
C695        C812   1.438       .  S
C705        C854   1.435       .  S
C708        N726   1.348       .  A
C708        C745   1.455       .  S
C708        C868   1.437       .  S
N709        N726   1.325       .  A
N709        N731   1.321       .  A
N709       Co746   2.087       .  S
C710        N735   1.341       .  A
C710        C748   1.455       .  S
C710        H755   1.082       .  S
H711        C752   1.082       .  S
C712        N736   1.341       .  A
C712        C716   1.455       .  S
C712        H741   1.082       .  S
Co713       N731   2.086       .  S
Co713       N721   2.087       .  S
Co713       N753   2.086       .  S
Co713       N729   2.088       .  S
Co713      Cl757   2.452       .  S
N714        C752   1.341       .  A
N714        N721   1.321       .  A
N714       Co715   2.084       .  S
Co715       N718   2.084       .  S
Co715       N735   2.084       .  S
Co715       N722   2.086       .  S
Co715      Cl757   2.453       .  S
C716        N754   1.347       .  A
C716        C852   1.436       .  S
N717        N724   1.321       .  A
N717        N747   1.325       .  A
N717       Co750   2.084       .  S
N718        N736   1.321       .  A
N718        N754   1.325       .  A
N719        C748   1.348       .  A
N719        N729   1.325       .  A
H720        C745   1.082       .  S
N721        N742   1.325       .  A
N722        N740   1.321       .  A
N722        N727   1.325       .  A
C723        N727   1.347       .  A
C723        C751   1.456       .  S
C723        C782   1.437       .  S
N724        C739   1.342       .  A
N724       Co746   2.086       .  S
C725        N753   1.342       .  A
C725        C728   1.456       .  S
C725        H759   1.082       .  S
C728        N749   1.348       .  A
C728        C810   1.438       .  S
N729        N735   1.321       .  A
N730        C756   1.342       .  A
N730        N732   1.321       .  A
N730       Co746   2.086       .  S
N731        C745   1.342       .  A
N732        N760   1.325       .  A
N732       Co750   2.086       .  S
H733        C756   1.082       .  S
H734        C751   1.082       .  S
N736       Co750   2.085       .  S
N737        N749   1.325       .  A
N737        N753   1.321       .  A
N737       Co746   2.088       .  S
C738        N742   1.348       .  A
C738        C752   1.455       .  S
C738        C796   1.436       .  S
C739        C758   1.456       .  S
C739        H743   1.082       .  S
N740        C751   1.342       .  A
N740       Co750   2.086       .  S
C744        N760   1.348       .  A
C744        C756   1.455       .  S
C744        C838   1.437       .  S
Co746      Cl757   2.453       .  S
N747        C758   1.347       .  A
C748        C770   1.438       .  S
Co750      Cl757   2.452       .  S
C758        C826   1.436       .  S
C761        C769   1.442       .  S
C761        C762   1.402       .  A
C761        C766   1.401       .  A
C762        H771   1.083       .  S
C762        C763   1.400       .  A
C763        H772   1.083       .  S
C763        C764   1.402       .  A
C764        C767   1.442       .  S
C764        C765   1.401       .  A
C765        H773   1.083       .  S
C765        C766   1.399       .  A
C766        H774   1.083       .  S
C767        C768   1.207       .  T
C769        C770   1.207       .  T
C775        C783   1.441       .  S
C775        C776   1.401       .  A
C775        C780   1.402       .  A
C776        H785   1.083       .  S
C776        C777   1.400       .  A
C777        H786   1.083       .  S
C777        C778   1.402       .  A
C778        C781   1.441       .  S
C778        C779   1.401       .  A
C779        H787   1.083       .  S
C779        C780   1.399       .  A
C780        H788   1.083       .  S
C781        C782   1.206       .  T
C783        C784   1.206       .  T
C789        C797   1.440       .  S
C789        C790   1.402       .  A
C789        C794   1.401       .  A
C790        H799   1.083       .  S
C790        C791   1.400       .  A
C791        H800   1.083       .  S
C791        C792   1.401       .  A
C792        C795   1.441       .  S
C792        C793   1.401       .  A
C793        H801   1.083       .  S
C793        C794   1.399       .  A
C794        H802   1.083       .  S
C795        C796   1.206       .  T
C797        C798   1.206       .  T
C803        C811   1.442       .  S
C803        C804   1.402       .  A
C803        C808   1.402       .  A
C804        H813   1.083       .  S
C804        C805   1.400       .  A
C805        H814   1.083       .  S
C805        C806   1.402       .  A
C806        C809   1.442       .  S
C806        C807   1.402       .  A
C807        H815   1.083       .  S
C807        C808   1.400       .  A
C808        H816   1.083       .  S
C809        C810   1.207       .  T
C811        C812   1.207       .  T
C817        C825   1.440       .  S
C817        C818   1.401       .  A
C817        C822   1.402       .  A
C818        H827   1.083       .  S
C818        C819   1.399       .  A
C819        H828   1.083       .  S
C819        C820   1.401       .  A
C820        C823   1.440       .  S
C820        C821   1.401       .  A
C821        H829   1.083       .  S
C821        C822   1.399       .  A
C822        H830   1.083       .  S
C823        C824   1.206       .  T
C825        C826   1.206       .  T
C831        C839   1.441       .  S
C831        C832   1.401       .  A
C831        C836   1.402       .  A
C832        H841   1.083       .  S
C832        C833   1.399       .  A
C833        H842   1.083       .  S
C833        C834   1.402       .  A
C834        C837   1.441       .  S
C834        C835   1.401       .  A
C835        H843   1.083       .  S
C835        C836   1.400       .  A
C836        H844   1.083       .  S
C837        C838   1.207       .  T
C839        C840   1.206       .  T
C845        C853   1.440       .  S
C845        C846   1.401       .  A
C845        C850   1.402       .  A
C846        H855   1.083       .  S
C846        C847   1.399       .  A
C847        H856   1.083       .  S
C847        C848   1.402       .  A
C848        C851   1.440       .  S
C848        C849   1.401       .  A
C849        H857   1.083       .  S
C849        C850   1.399       .  A
C850        H858   1.083       .  S
C851        C852   1.206       .  T
C853        C854   1.206       .  T
C859        C867   1.441       .  S
C859        C860   1.402       .  A
C859        C864   1.402       .  A
C860        H869   1.083       .  S
C860        C861   1.400       .  A
C861        H870   1.083       .  S
C861        C862   1.402       .  A
C862        C865   1.441       .  S
C862        C863   1.401       .  A
C863        H871   1.083       .  S
C863        C864   1.399       .  A
C864        H872   1.083       .  S
C865        C866   1.206       .  T
C867        C868   1.207       .  T
