geometry optimzed in LAMMPS
_audit_creation_date              2020-11-30 
_audit_creation_method            'lammps2cif' 
_symmetry_space_group_name_H-M    'P1' 
_symmetry_Int_Tables_number       1 
_symmetry_cell_setting            triclinic 
loop_ 
_symmetry_equiv_pos_as_xyz 
  x,y,z 
_cell_length_a                    43.771457 
_cell_length_b                    43.76538462081373 
_cell_length_c                    45.13015572473233 
_cell_angle_alpha                 90.00055382564236 
_cell_angle_beta                  89.99938216497034 
_cell_angle_gamma                 89.99784997071244 
loop_ 
_atom_site_label 
_atom_site_type_symbol 
_atom_site_fract_x 
_atom_site_fract_y 
_atom_site_fract_z 
_atom_site_charge 
Zn1        Zn  0.01867080  0.15532838  0.06906616     1.49700
Zn2        Zn  0.46958808  0.14394111  0.11837735     1.49400
Zn3        Zn  0.48132879  0.09467436  0.06906636     1.49100
Zn4        Zn  0.03040957  0.10606390  0.11837840     1.49500
O5          O  0.99999931  0.12500196  0.09381399    -1.80000
O6          O  0.01335816  0.19780277  0.08697817    -0.70600
O7          O  0.42707423  0.13828996  0.10035905    -0.70400
O8          O  0.49690802  0.09963052  0.02736575    -0.70000
O9          O  0.47863801  0.18871809  0.12196646    -0.70600
O10         O  0.00309217  0.15037137  0.02736579    -0.70200
O11         O  0.43668826  0.10364879  0.06540887    -0.70800
O12         O  0.02136061  0.06128684  0.12196742    -0.70200
O13         O  0.47466272  0.12848187  0.16016084    -0.71000
O14         O  0.48664180  0.05220046  0.08697884    -0.70400
O15         O  0.02533225  0.12152370  0.16016164    -0.70800
O16         O  0.07292441  0.11171530  0.10036166    -0.70700
O17         O  0.06331130  0.14635349  0.06540928    -0.70500
C18         C  0.99687616  0.20665904  0.10866484     0.81300
C19         C  0.41849369  0.12166201  0.07864992     0.81800
C20         C  0.99999993  0.12500081  0.01374810     0.80700
C21         C  0.00312347  0.04334508  0.10866563     0.81100
C22         C  0.99999706  0.12500271  0.17377241     0.82200
C23         C  0.08150569  0.12834170  0.07865181     0.81300
Zn24       Zn  0.03085917  0.14300460  0.36842920     1.49700
Zn25       Zn  0.01802670  0.09415306  0.31917054     1.49400
Zn26       Zn  0.46913740  0.10699852  0.36842988     1.49100
Zn27       Zn  0.48196873  0.15585071  0.31917221     1.49500
O28         O  0.99999809  0.12500179  0.34379538    -1.80000
O29         O  0.07322499  0.13651530  0.35040657    -0.70600
O30         O  0.01147593  0.05179834  0.33718459    -0.70400
O31         O  0.47455860  0.12245520  0.41013811    -0.70000
O32         O  0.06292948  0.10204993  0.31549212    -0.70600
O33         O  0.02543830  0.12754785  0.41013724    -0.70200
O34         O  0.47703347  0.06210074  0.37212161    -0.70800
O35         O  0.43706587  0.14795391  0.31549560    -0.70200
O36         O  0.00261408  0.09956736  0.27743175    -0.71000
O37         O  0.42677126  0.11348703  0.35040846    -0.70400
O38         O  0.49737982  0.15043645  0.27743255    -0.70800
O39         O  0.48852087  0.19820532  0.33718640    -0.70700
O40         O  0.02296422  0.18790261  0.37212163    -0.70500
C41         C  0.08148266  0.11971971  0.32870685     0.81300
C42         C  0.99467579  0.04354099  0.35887888     0.81800
C43         C  0.99999856  0.12500136  0.42374824     0.80700
C44         C  0.41851315  0.13028326  0.32870988     0.81100
C45         C  0.99999674  0.12500190  0.26381536     0.82200
C46         C  0.00532203  0.20646261  0.35887973     0.81300
Zn47       Zn  0.48164338  0.34441805  0.18080983     1.49700
Zn48       Zn  0.03068635  0.35650960  0.13151890     1.49400
Zn49       Zn  0.46931592  0.39349466  0.13152047     1.49100
Zn50       Zn  0.01836050  0.40558691  0.18080914     1.49500
O51         O  0.50000144  0.37500242  0.15612459    -1.80000
O52         O  0.48760392  0.30206516  0.16283588    -0.70600
O53         O  0.02538747  0.37195018  0.08978347    -0.70400
O54         O  0.42680563  0.38718356  0.14937436    -0.70000
O55         O  0.02221877  0.31161310  0.12785798    -0.70600
O56         O  0.43682650  0.35262596  0.18428189    -0.70200
O57         O  0.47461456  0.37805499  0.08978439    -0.70800
O58         O  0.01239955  0.44793968  0.16283563    -0.70200
O59         O  0.07319692  0.36281931  0.14937200    -0.71000
O60         O  0.47778248  0.43839130  0.12786035    -0.70400
O61         O  0.06317728  0.39737826  0.18427942    -0.70800
O62         O  0.00301959  0.40038731  0.22259211    -0.70700
O63         O  0.49698574  0.34961808  0.22259190    -0.70500
C64         C  0.50418573  0.29344107  0.14113187     0.81300
C65         C  0.50000101  0.37500286  0.07617833     0.81800
C66         C  0.41838696  0.37034354  0.17098915     0.80700
C67         C  0.49581637  0.45656351  0.14113303     0.81100
C68         C  0.08161618  0.37965952  0.17098652     0.82200
C69         C  0.50000288  0.37500270  0.23621007     0.81300
Zn70       Zn  0.46914893  0.39298094  0.38160564     1.49700
Zn71       Zn  0.48208533  0.34416305  0.43090697     1.49400
Zn72       Zn  0.03085370  0.35702301  0.38160626     1.49100
Zn73       Zn  0.01791579  0.40584275  0.43090684     1.49500
O74         O  0.50000100  0.37500253  0.40622070    -1.80000
O75         O  0.42686503  0.38653543  0.39978124    -0.70600
O76         O  0.48856080  0.30181054  0.41288012    -0.70400
O77         O  0.02544562  0.37247504  0.33986797    -0.70000
O78         O  0.43721535  0.35217600  0.43479030    -0.70600
O79         O  0.47455965  0.37752898  0.33986726    -0.70200
O80         O  0.02297370  0.31212044  0.37792027    -0.70800
O81         O  0.06278567  0.39782945  0.43479097    -0.70200
O82         O  0.49769876  0.34954289  0.47255730    -0.71000
O83         O  0.07313664  0.36346757  0.39978350    -0.70400
O84         O  0.00230145  0.40046385  0.47255728    -0.70800
O85         O  0.01144044  0.44819487  0.41287953    -0.70700
O86         O  0.47702786  0.43788359  0.37792027    -0.70500
C87         C  0.41866109  0.36986070  0.42158683     0.81300
C88         C  0.50534421  0.29355702  0.39117277     0.81800
C89         C  0.50000300  0.37500214  0.32624942     0.80700
C90         C  0.08134000  0.38014326  0.42158878     0.81100
C91         C  0.50000006  0.37500347  0.48617477     0.82200
C92         C  0.49465705  0.45644760  0.39117234     0.81300
Zn93       Zn  0.21914794  0.35702287  0.24334845     1.49700
Zn94       Zn  0.26791769  0.34415972  0.19404776     1.49400
Zn95       Zn  0.23208486  0.40584026  0.19404786     1.49100
Zn96       Zn  0.28085211  0.39297727  0.24334945     1.45500
O97         O  0.25000058  0.37500007  0.21873432    -1.80000
O98         O  0.22702717  0.31211990  0.24703187    -0.70600
O99         O  0.25230416  0.34953943  0.15239754    -0.70400
O100        O  0.18721507  0.39782923  0.19016326    -0.70000
O101        O  0.26144183  0.30180790  0.21207323    -0.70600
O102        O  0.17686481  0.36346993  0.22517192    -0.70200
O103        O  0.24769991  0.40046048  0.15239795    -0.70800
O104        O  0.27297250  0.43788024  0.24703372    -0.70200
O105        O  0.31278770  0.35217098  0.19016424    -0.71000
O106        O  0.23856001  0.44819218  0.21207392    -0.70400
O107        O  0.32313603  0.38653055  0.22517359    -0.70800
O108        O  0.27544219  0.37752643  0.28508787    -0.70700
O109        O  0.22455653  0.37247305  0.28508754    -0.70500
C110        C  0.24465695  0.29355535  0.23377924     0.81300
C111        C  0.25000211  0.37499989  0.13878036     0.81800
C112        C  0.16866108  0.38014483  0.20336613     0.80700
C113        C  0.25534360  0.45644475  0.23378067     0.81100
C114        C  0.33134088  0.36985568  0.20336769     0.82200
C115        C  0.24999915  0.37499958  0.29870587     0.81300
Zn116      Zn  0.28068433  0.39349185  0.49343536     1.49700
Zn117      Zn  0.23163918  0.40558454  0.44414605     1.49400
Zn118      Zn  0.26836111  0.34441612  0.44414562     1.49100
Zn119      Zn  0.21931606  0.35651007  0.49343641     1.49500
O120        O  0.25000022  0.37500058  0.46883047    -1.80000
O121        O  0.27221490  0.43838780  0.49709582    -0.70600
O122        O  0.24698082  0.40038427  0.40236340    -0.70400
O123        O  0.31317753  0.35262455  0.44067330    -0.70000
O124        O  0.23759881  0.44793704  0.46211927    -0.70600
O125        O  0.32319485  0.38718271  0.47558111    -0.70200
O126        O  0.25301850  0.34961512  0.40236343    -0.70800
O127        O  0.22778501  0.31161399  0.49709631    -0.70200
O128        O  0.18682278  0.39737668  0.44067538    -0.71000
O129        O  0.26240187  0.30206414  0.46211970    -0.70400
O130        O  0.17680511  0.36281973  0.47558376    -0.70800
O131        O  0.22461439  0.37195028  0.03517195    -0.70700
O132        O  0.27538727  0.37805160  0.03517079    -0.70500
C133        C  0.25418126  0.45656053  0.48382222     0.81300
C134        C  0.24999947  0.37499948  0.38874532     0.81800
C135        C  0.33161516  0.37034322  0.45396587     0.80700
C136        C  0.24581902  0.29344115  0.48382277     0.81100
C137        C  0.16838495  0.37965883  0.45396864     0.82200
C138        C  0.25000108  0.37500078  0.04877700     0.81300
Zn139      Zn  0.28040976  0.14393850  0.00656866     1.49700
Zn140      Zn  0.26867410  0.09467429  0.05588027     1.49400
Zn141      Zn  0.23132650  0.15532850  0.05588148     1.49100
Zn142      Zn  0.21958974  0.10606353  0.00656981     1.49500
O143        O  0.24999999  0.12500130  0.03113342    -1.80000
O144        O  0.32292492  0.13828660  0.02458382    -0.70600
O145        O  0.25309664  0.09963101  0.09758130    -0.70400
O146        O  0.23664012  0.19780257  0.03797117    -0.70000
O147        O  0.31331464  0.10364771  0.05953560    -0.70600
O148        O  0.27136008  0.18871556  0.00298235    -0.70200
O149        O  0.24690458  0.15037131  0.09758204    -0.70800
O150        O  0.17707510  0.11171575  0.02458659    -0.70200
O151        O  0.26336070  0.05220022  0.03796961    -0.71000
O152        O  0.18668575  0.14635562  0.05953791    -0.70400
O153        O  0.22863954  0.06128639  0.00298259    -0.70800
O154        O  0.22466468  0.12152132  0.46478620    -0.70700
O155        O  0.27533347  0.12848077  0.46478478    -0.70500
C156        C  0.33150752  0.12165999  0.04629315     0.81300
C157        C  0.25000077  0.12500113  0.11119926     0.81800
C158        C  0.25312281  0.20665789  0.01628515     0.80700
C159        C  0.16849266  0.12834304  0.04629603     0.81100
C160        C  0.24687746  0.04334448  0.01628443     0.82200
C161        C  0.24999882  0.12500118  0.45117438     0.81300
Zn162      Zn  0.28086125  0.10699625  0.25651824     1.49700
Zn163      Zn  0.26802560  0.15584855  0.30577637     1.49400
Zn164      Zn  0.21913756  0.14300473  0.25651752     1.49100
Zn165      Zn  0.23197071  0.09415356  0.30577607     1.49500
O166        O  0.24999871  0.12500073  0.28115161    -1.80000
O167        O  0.32322680  0.11348503  0.27454050    -0.70600
O168        O  0.26147386  0.19820263  0.28776255    -0.70400
O169        O  0.22456038  0.12754803  0.21480938    -0.70000
O170        O  0.31292841  0.14795084  0.30945457    -0.70600
O171        O  0.27544015  0.12245214  0.21480980    -0.70200
O172        O  0.22703177  0.18790232  0.25282600    -0.70800
O173        O  0.18706767  0.10205139  0.30945311    -0.70200
O174        O  0.25261260  0.15043601  0.34751502    -0.71000
O175        O  0.17677116  0.13651653  0.27453869    -0.70400
O176        O  0.24738215  0.09956706  0.34751493    -0.70800
O177        O  0.23852352  0.05179906  0.28776278    -0.70700
O178        O  0.27296742  0.06209853  0.25282711    -0.70500
C179        C  0.33148306  0.13028098  0.29623985     0.81300
C180        C  0.24467365  0.20646090  0.26606868     0.81800
C181        C  0.25000055  0.12500013  0.20119906     0.80700
C182        C  0.16851378  0.11972106  0.29623786     0.81100
C183        C  0.24999736  0.12500160  0.36113178     0.82200
C184        C  0.25532494  0.04354016  0.26606952     0.81300
C185        C  0.24999804  0.12500156  0.41948031    -0.09100
C186        C  0.24999758  0.12500176  0.39282399    -0.10700
C187        C  0.25000110  0.12500092  0.14287553    -0.09100
C188        C  0.25000112  0.12500046  0.16952182    -0.10700
C189        C  0.25177190  0.48733459  0.49476761    -0.09100
C190        C  0.24957102  0.01256628  0.00541379    -0.10700
C191        C  0.24822849  0.26266728  0.49476834    -0.09100
C192        C  0.25042922  0.23743594  0.00541474    -0.10700
C193        C  0.24999877  0.37499922  0.33039845    -0.09100
C194        C  0.24999895  0.37499909  0.35705380    -0.10700
C195        C  0.25000167  0.37500026  0.08045560    -0.09100
C196        C  0.25000207  0.37499992  0.10710292    -0.10700
C197        C  0.25403245  0.48732921  0.24460126    -0.09100
C198        C  0.25402457  0.01265315  0.25525405    -0.10700
C199        C  0.24597480  0.23734769  0.25525290    -0.09100
C200        C  0.24596767  0.26267108  0.24459969    -0.10700
C201        C  0.11214768  0.37860122  0.43258825    -0.09100
C202        C  0.13744840  0.37838347  0.44328863    -0.10700
C203        C  0.38785274  0.37140197  0.43258509    -0.09100
C204        C  0.36255156  0.37161904  0.44328513    -0.10700
C205        C  0.50000352  0.37500278  0.26790152    -0.09100
C206        C  0.50000364  0.37500249  0.29455686    -0.10700
C207        C  0.50000075  0.37500335  0.04449953    -0.09100
C208        C  0.50000043  0.37500359  0.01785226    -0.10700
C209        C  0.13785363  0.37860325  0.19236665    -0.09100
C210        C  0.11255287  0.37838479  0.18166621    -0.10700
C211        C  0.36214888  0.37139771  0.19236890    -0.09100
C212        C  0.38745007  0.37161712  0.18166907    -0.10700
C213        C  0.13764498  0.12106832  0.30710975    -0.09100
C214        C  0.11235081  0.12106761  0.31783371    -0.10700
C215        C  0.36235132  0.12893391  0.30711276    -0.09100
C216        C  0.38764499  0.12893491  0.31783713    -0.10700
C217        C  0.99597714  0.01265418  0.36969531    -0.09100
C218        C  0.49596891  0.48733116  0.38034984    -0.10700
C219        C  0.00402212  0.23734979  0.36969608    -0.09100
C220        C  0.50403155  0.26267312  0.38035034    -0.10700
C221        C  0.99999951  0.12500089  0.48207179    -0.09100
C222        C  0.99999894  0.12500105  0.45542545    -0.10700
C223        C  0.99999621  0.12500254  0.20546660    -0.09100
C224        C  0.99999618  0.12500211  0.23212299    -0.10700
C225        C  0.11235515  0.12651565  0.06783342    -0.09100
C226        C  0.13764359  0.12651642  0.05711494    -0.10700
C227        C  0.38764467  0.12348799  0.06783042    -0.09100
C228        C  0.36235677  0.12348710  0.05711156    -0.10700
C229        C  0.49822610  0.48733712  0.13018630    -0.09100
C230        C  0.50042837  0.01256781  0.11953855    -0.10700
C231        C  0.50177513  0.26266736  0.13018510    -0.09100
C232        C  0.49957193  0.23743648  0.11953760    -0.10700
Zn233      Zn  0.01867078  0.15532839  0.56906616     1.49700
Zn234      Zn  0.46958812  0.14394110  0.61837734     1.49400
Zn235      Zn  0.48132880  0.09467435  0.56906630     1.49100
Zn236      Zn  0.03040953  0.10606399  0.61837841     1.49500
O237        O  0.99999929  0.12500180  0.59381389    -1.80000
O238        O  0.01335811  0.19780274  0.58697824    -0.70600
O239        O  0.42707424  0.13828999  0.60035908    -0.70400
O240        O  0.49690804  0.09963059  0.52736565    -0.70000
O241        O  0.47863810  0.18871807  0.62196659    -0.70600
O242        O  0.00309204  0.15037148  0.52736579    -0.70200
O243        O  0.43668824  0.10364881  0.56540889    -0.70800
O244        O  0.02136055  0.06128697  0.62196746    -0.70200
O245        O  0.47466274  0.12848175  0.66016080    -0.71000
O246        O  0.48664186  0.05220047  0.58697876    -0.70400
O247        O  0.02533227  0.12152389  0.66016170    -0.70800
O248        O  0.07292431  0.11171541  0.60036168    -0.70700
O249        O  0.06331125  0.14635353  0.56540928    -0.70500
C250        C  0.99687605  0.20665905  0.60866492     0.81300
C251        C  0.41849365  0.12166214  0.57864992     0.81800
C252        C  0.99999994  0.12500099  0.51374805     0.80700
C253        C  0.00312342  0.04334510  0.60866567     0.81100
C254        C  0.99999711  0.12500277  0.67377242     0.82200
C255        C  0.08150552  0.12834172  0.57865180     0.81300
Zn256      Zn  0.03085910  0.14300457  0.86842919     1.49700
Zn257      Zn  0.01802665  0.09415304  0.81917050     1.49400
Zn258      Zn  0.46913740  0.10699851  0.86842987     1.49100
Zn259      Zn  0.48196871  0.15585076  0.81917221     1.49500
O260        O  0.99999802  0.12500180  0.84379543    -1.80000
O261        O  0.07322491  0.13651531  0.85040660    -0.70600
O262        O  0.01147586  0.05179831  0.83718455    -0.70400
O263        O  0.47455855  0.12245518  0.91013812    -0.70000
O264        O  0.06292943  0.10204995  0.81549219    -0.70600
O265        O  0.02543823  0.12754780  0.91013722    -0.70200
O266        O  0.47703346  0.06210074  0.87212160    -0.70800
O267        O  0.43706584  0.14795404  0.81549570    -0.70200
O268        O  0.00261408  0.09956736  0.77743166    -0.71000
O269        O  0.42677133  0.11348699  0.85040841    -0.70400
O270        O  0.49737973  0.15043645  0.77743246    -0.70800
O271        O  0.48852089  0.19820545  0.83718643    -0.70700
O272        O  0.02296415  0.18790258  0.87212169    -0.70500
C273        C  0.08148264  0.11971975  0.82870692     0.81300
C274        C  0.99467572  0.04354106  0.85887880     0.81800
C275        C  0.99999851  0.12500133  0.92374823     0.80700
C276        C  0.41851314  0.13028325  0.82870992     0.81100
C277        C  0.99999660  0.12500191  0.76381529     0.82200
C278        C  0.00532201  0.20646262  0.85887986     0.81300
Zn279      Zn  0.48164335  0.34441801  0.68080985     1.49700
Zn280      Zn  0.03068633  0.35650959  0.63151891     1.49400
Zn281      Zn  0.46931600  0.39349464  0.63152049     1.49100
Zn282      Zn  0.01836051  0.40558689  0.68080913     1.49500
O283        O  0.50000156  0.37500224  0.65612463    -1.80000
O284        O  0.48760386  0.30206510  0.66283587    -0.70600
O285        O  0.02538752  0.37195011  0.58978359    -0.70400
O286        O  0.42680577  0.38718361  0.64937438    -0.70000
O287        O  0.02221873  0.31161311  0.62785793    -0.70600
O288        O  0.43682652  0.35262597  0.68428187    -0.70200
O289        O  0.47461459  0.37805494  0.58978447    -0.70800
O290        O  0.01239951  0.44793959  0.66283559    -0.70200
O291        O  0.07319689  0.36281926  0.64937199    -0.71000
O292        O  0.47778247  0.43839125  0.62786031    -0.70400
O293        O  0.06317726  0.39737821  0.68427944    -0.70800
O294        O  0.00301952  0.40038734  0.72259208    -0.70700
O295        O  0.49698573  0.34961810  0.72259188    -0.70500
C296        C  0.50418563  0.29344107  0.64113186     0.81300
C297        C  0.50000099  0.37500279  0.57617830     0.81800
C298        C  0.41838700  0.37034364  0.67098917     0.80700
C299        C  0.49581631  0.45656351  0.64113296     0.81100
C300        C  0.08161614  0.37965946  0.67098654     0.82200
C301        C  0.50000303  0.37500271  0.73621006     0.81300
Zn302      Zn  0.46914890  0.39298090  0.88160560     1.49700
Zn303      Zn  0.48208532  0.34416302  0.93090692     1.49400
Zn304      Zn  0.03085377  0.35702297  0.88160628     1.49100
Zn305      Zn  0.01791578  0.40584270  0.93090684     1.49500
O306        O  0.50000085  0.37500252  0.90622066    -1.80000
O307        O  0.42686498  0.38653542  0.89978118    -0.70600
O308        O  0.48856077  0.30181053  0.91288006    -0.70400
O309        O  0.02544567  0.37247497  0.83986798    -0.70000
O310        O  0.43721531  0.35217599  0.93479024    -0.70600
O311        O  0.47455965  0.37752894  0.83986732    -0.70200
O312        O  0.02297384  0.31212034  0.87792034    -0.70800
O313        O  0.06278564  0.39782943  0.93479096    -0.70200
O314        O  0.49769874  0.34954288  0.97255725    -0.71000
O315        O  0.07313675  0.36346754  0.89978354    -0.70400
O316        O  0.00230141  0.40046383  0.97255733    -0.70800
O317        O  0.01144040  0.44819485  0.91287954    -0.70700
O318        O  0.47702784  0.43788355  0.87792025    -0.70500
C319        C  0.41866108  0.36986068  0.92158671     0.81300
C320        C  0.50534428  0.29355698  0.89117275     0.81800
C321        C  0.50000297  0.37500213  0.82624946     0.80700
C322        C  0.08134004  0.38014324  0.92158880     0.81100
C323        C  0.50000019  0.37500344  0.98617465     0.82200
C324        C  0.49465698  0.45644754  0.89117238     0.81300
Zn325      Zn  0.21914803  0.35702287  0.74334846     1.49700
Zn326      Zn  0.26791774  0.34415973  0.69404772     1.49400
Zn327      Zn  0.23208493  0.40584028  0.69404784     1.49100
Zn328      Zn  0.28085209  0.39297738  0.74334938     1.45500
O329        O  0.25000070  0.37499994  0.71873422    -1.80000
O330        O  0.22702730  0.31211991  0.74703191    -0.70600
O331        O  0.25230426  0.34953946  0.65239748    -0.70400
O332        O  0.18721518  0.39782926  0.69016323    -0.70000
O333        O  0.26144180  0.30180786  0.71207314    -0.70600
O334        O  0.17686486  0.36346998  0.72517187    -0.70200
O335        O  0.24770000  0.40046048  0.65239793    -0.70800
O336        O  0.27297246  0.43788037  0.74703367    -0.70200
O337        O  0.31278769  0.35217096  0.69016433    -0.71000
O338        O  0.23856000  0.44819224  0.71207392    -0.70400
O339        O  0.32313593  0.38653064  0.72517359    -0.70800
O340        O  0.27544212  0.37752657  0.78508778    -0.70700
O341        O  0.22455646  0.37247311  0.78508756    -0.70500
C342        C  0.24465697  0.29355532  0.73377922     0.81300
C343        C  0.25000218  0.37499996  0.63878031     0.81800
C344        C  0.16866120  0.38014481  0.70336602     0.80700
C345        C  0.25534359  0.45644491  0.73378062     0.81100
C346        C  0.33134086  0.36985574  0.70336775     0.82200
C347        C  0.24999909  0.37499954  0.79870588     0.81300
Zn348      Zn  0.28068431  0.39349182  0.99343537     1.49700
Zn349      Zn  0.23163915  0.40558451  0.94414608     1.49400
Zn350      Zn  0.26836110  0.34441613  0.94414563     1.49100
Zn351      Zn  0.21931602  0.35651009  0.99343641     1.49500
O352        O  0.25000006  0.37500060  0.96883057    -1.80000
O353        O  0.27221495  0.43838781  0.99709585    -0.70600
O354        O  0.24698076  0.40038423  0.90236338    -0.70400
O355        O  0.31317756  0.35262452  0.94067335    -0.70000
O356        O  0.23759879  0.44793698  0.96211936    -0.70600
O357        O  0.32319483  0.38718264  0.97558116    -0.70200
O358        O  0.25301861  0.34961512  0.90236342    -0.70800
O359        O  0.22778504  0.31161405  0.99709623    -0.70200
O360        O  0.18682276  0.39737662  0.94067538    -0.71000
O361        O  0.26240188  0.30206410  0.96211960    -0.70400
O362        O  0.17680510  0.36281974  0.97558384    -0.70800
O363        O  0.22461448  0.37195019  0.53517193    -0.70700
O364        O  0.27538732  0.37805160  0.53517072    -0.70500
C365        C  0.25418130  0.45656049  0.98382226     0.81300
C366        C  0.24999943  0.37499948  0.88874523     0.81800
C367        C  0.33161511  0.37034316  0.95396597     0.80700
C368        C  0.24581900  0.29344108  0.98382262     0.81100
C369        C  0.16838489  0.37965880  0.95396871     0.82200
C370        C  0.25000114  0.37500073  0.54877696     0.81300
Zn371      Zn  0.28040978  0.14393847  0.50656863     1.49700
Zn372      Zn  0.26867410  0.09467425  0.55588030     1.49400
Zn373      Zn  0.23132655  0.15532847  0.55588149     1.49100
Zn374      Zn  0.21958980  0.10606352  0.50656983     1.49500
O375        O  0.25000000  0.12500117  0.53113341    -1.80000
O376        O  0.32292490  0.13828652  0.52458381    -0.70600
O377        O  0.25309656  0.09963101  0.59758132    -0.70400
O378        O  0.23664014  0.19780250  0.53797119    -0.70000
O379        O  0.31331461  0.10364768  0.55953566    -0.70600
O380        O  0.27136003  0.18871557  0.50298233    -0.70200
O381        O  0.24690459  0.15037134  0.59758209    -0.70800
O382        O  0.17707519  0.11171571  0.52458665    -0.70200
O383        O  0.26336073  0.05220018  0.53796968    -0.71000
O384        O  0.18668583  0.14635555  0.55953792    -0.70400
O385        O  0.22863964  0.06128640  0.50298262    -0.70800
O386        O  0.22466462  0.12152130  0.96478617    -0.70700
O387        O  0.27533339  0.12848086  0.96478484    -0.70500
C388        C  0.33150751  0.12165994  0.54629319     0.81300
C389        C  0.25000073  0.12500117  0.61119936     0.81800
C390        C  0.25312276  0.20665782  0.51628526     0.80700
C391        C  0.16849283  0.12834298  0.54629603     0.81100
C392        C  0.24687753  0.04334445  0.51628446     0.82200
C393        C  0.24999876  0.12500125  0.95117439     0.81300
Zn394      Zn  0.28086133  0.10699621  0.75651826     1.49700
Zn395      Zn  0.26802570  0.15584854  0.80577635     1.49400
Zn396      Zn  0.21913757  0.14300472  0.75651753     1.49100
Zn397      Zn  0.23197075  0.09415356  0.80577601     1.49500
O398        O  0.24999887  0.12500074  0.78115155    -1.80000
O399        O  0.32322691  0.11348498  0.77454051    -0.70600
O400        O  0.26147398  0.19820259  0.78776253    -0.70400
O401        O  0.22456044  0.12754809  0.71480941    -0.70000
O402        O  0.31292849  0.14795083  0.80945458    -0.70600
O403        O  0.27544020  0.12245206  0.71480983    -0.70200
O404        O  0.22703174  0.18790229  0.75282610    -0.70800
O405        O  0.18706778  0.10205137  0.80945301    -0.70200
O406        O  0.25261267  0.15043599  0.84751510    -0.71000
O407        O  0.17677112  0.13651648  0.77453863    -0.70400
O408        O  0.24738211  0.09956705  0.84751489    -0.70800
O409        O  0.23852358  0.05179904  0.78776275    -0.70700
O410        O  0.27296751  0.06209846  0.75282712    -0.70500
C411        C  0.33148312  0.13028087  0.79623984     0.81300
C412        C  0.24467365  0.20646088  0.76606878     0.81800
C413        C  0.25000057  0.12500017  0.70119905     0.80700
C414        C  0.16851378  0.11972100  0.79623778     0.81100
C415        C  0.24999737  0.12500158  0.86113176     0.82200
C416        C  0.25532508  0.04354018  0.76606955     0.81300
C417        C  0.24999801  0.12500159  0.91948031    -0.09100
C418        C  0.24999751  0.12500171  0.89282401    -0.10700
C419        C  0.25000112  0.12500092  0.64287551    -0.09100
C420        C  0.25000113  0.12500046  0.66952195    -0.10700
C421        C  0.25177184  0.48733458  0.99476763    -0.09100
C422        C  0.24957116  0.01256627  0.50541379    -0.10700
C423        C  0.24822841  0.26266736  0.99476832    -0.09100
C424        C  0.25042921  0.23743596  0.50541476    -0.10700
C425        C  0.24999874  0.37499927  0.83039835    -0.09100
C426        C  0.24999894  0.37499912  0.85705378    -0.10700
C427        C  0.25000176  0.37500027  0.58045554    -0.09100
C428        C  0.25000218  0.37500003  0.60710286    -0.10700
C429        C  0.25403237  0.48732931  0.74460124    -0.09100
C430        C  0.25402462  0.01265307  0.75525404    -0.10700
C431        C  0.24597493  0.23734757  0.75525285    -0.09100
C432        C  0.24596772  0.26267107  0.74459973    -0.10700
C433        C  0.11214765  0.37860121  0.93258826    -0.09100
C434        C  0.13744849  0.37838340  0.94328861    -0.10700
C435        C  0.38785265  0.37140190  0.93258506    -0.09100
C436        C  0.36255166  0.37161896  0.94328517    -0.10700
C437        C  0.50000359  0.37500270  0.76790150    -0.09100
C438        C  0.50000374  0.37500252  0.79455693    -0.10700
C439        C  0.50000076  0.37500333  0.54449971    -0.09100
C440        C  0.50000037  0.37500368  0.51785221    -0.10700
C441        C  0.13785364  0.37860330  0.69236652    -0.09100
C442        C  0.11255284  0.37838478  0.68166627    -0.10700
C443        C  0.36214885  0.37139777  0.69236899    -0.09100
C444        C  0.38745013  0.37161715  0.68166908    -0.10700
C445        C  0.13764503  0.12106825  0.80710975    -0.09100
C446        C  0.11235085  0.12106764  0.81783378    -0.10700
C447        C  0.36235136  0.12893391  0.80711272    -0.09100
C448        C  0.38764502  0.12893495  0.81783707    -0.10700
C449        C  0.99597713  0.01265409  0.86969531    -0.09100
C450        C  0.49596883  0.48733118  0.88034981    -0.10700
C451        C  0.00402224  0.23734982  0.86969612    -0.09100
C452        C  0.50403159  0.26267313  0.88035034    -0.10700
C453        C  0.99999946  0.12500073  0.98207180    -0.09100
C454        C  0.99999894  0.12500098  0.95542547    -0.10700
C455        C  0.99999625  0.12500255  0.70546662    -0.09100
C456        C  0.99999621  0.12500214  0.73212292    -0.10700
C457        C  0.11235522  0.12651570  0.56783340    -0.09100
C458        C  0.13764349  0.12651642  0.55711500    -0.10700
C459        C  0.38764468  0.12348810  0.56783053    -0.09100
C460        C  0.36235665  0.12348711  0.55711165    -0.10700
C461        C  0.49822603  0.48733714  0.63018628    -0.09100
C462        C  0.50042838  0.01256796  0.61953856    -0.10700
C463        C  0.50177516  0.26266736  0.63018521    -0.09100
C464        C  0.49957187  0.23743647  0.61953763    -0.10700
Zn465      Zn  0.01867079  0.65532841  0.06906615     1.49700
Zn466      Zn  0.46958812  0.64394110  0.11837734     1.49400
Zn467      Zn  0.48132878  0.59467436  0.06906636     1.49100
Zn468      Zn  0.03040953  0.60606397  0.11837840     1.49500
O469        O  0.99999926  0.62500186  0.09381396    -1.80000
O470        O  0.01335812  0.69780279  0.08697817    -0.70600
O471        O  0.42707429  0.63829000  0.10035908    -0.70400
O472        O  0.49690799  0.59963057  0.02736575    -0.70000
O473        O  0.47863806  0.68871808  0.12196653    -0.70600
O474        O  0.00309216  0.65037143  0.02736578    -0.70200
O475        O  0.43668824  0.60364881  0.06540891    -0.70800
O476        O  0.02136055  0.56128691  0.12196741    -0.70200
O477        O  0.47466272  0.62848181  0.16016082    -0.71000
O478        O  0.48664179  0.55220042  0.08697884    -0.70400
O479        O  0.02533223  0.62152386  0.16016164    -0.70800
O480        O  0.07292437  0.61171535  0.10036166    -0.70700
O481        O  0.06331130  0.64635353  0.06540930    -0.70500
C482        C  0.99687613  0.70665913  0.10866489     0.81300
C483        C  0.41849371  0.62166214  0.07864994     0.81800
C484        C  0.99999991  0.62500093  0.01374810     0.80700
C485        C  0.00312346  0.54334511  0.10866564     0.81100
C486        C  0.99999703  0.62500281  0.17377240     0.82200
C487        C  0.08150567  0.62834170  0.07865181     0.81300
Zn488      Zn  0.03085915  0.64300457  0.36842920     1.49700
Zn489      Zn  0.01802671  0.59415307  0.31917055     1.49400
Zn490      Zn  0.46913741  0.60699851  0.36842987     1.49100
Zn491      Zn  0.48196871  0.65585075  0.31917222     1.49500
O492        O  0.99999806  0.62500182  0.34379537    -1.80000
O493        O  0.07322495  0.63651536  0.35040657    -0.70600
O494        O  0.01147594  0.55179832  0.33718458    -0.70400
O495        O  0.47455862  0.62245515  0.41013810    -0.70000
O496        O  0.06292946  0.60204996  0.31549220    -0.70600
O497        O  0.02543827  0.62754780  0.41013722    -0.70200
O498        O  0.47703344  0.56210073  0.37212159    -0.70800
O499        O  0.43706581  0.64795400  0.31549567    -0.70200
O500        O  0.00261406  0.59956742  0.27743175    -0.71000
O501        O  0.42677130  0.61348703  0.35040844    -0.70400
O502        O  0.49737978  0.65043649  0.27743257    -0.70800
O503        O  0.48852088  0.69820543  0.33718644    -0.70700
O504        O  0.02296417  0.68790261  0.37212166    -0.70500
C505        C  0.08148268  0.61971979  0.32870689     0.81300
C506        C  0.99467578  0.54354098  0.35887887     0.81800
C507        C  0.99999854  0.62500131  0.42374818     0.80700
C508        C  0.41851311  0.63028327  0.32870991     0.81100
C509        C  0.99999671  0.62500199  0.26381537     0.82200
C510        C  0.00532202  0.70646263  0.35887977     0.81300
Zn511      Zn  0.48164339  0.84441806  0.18080984     1.49700
Zn512      Zn  0.03068638  0.85650959  0.13151890     1.49400
Zn513      Zn  0.46931593  0.89349465  0.13152047     1.49100
Zn514      Zn  0.01836051  0.90558689  0.18080913     1.49500
O515        O  0.50000150  0.87500227  0.15612455    -1.80000
O516        O  0.48760386  0.80206512  0.16283584    -0.70600
O517        O  0.02538752  0.87195013  0.08978345    -0.70400
O518        O  0.42680560  0.88718361  0.14937433    -0.70000
O519        O  0.02221877  0.81161309  0.12785794    -0.70600
O520        O  0.43682649  0.85262606  0.18428187    -0.70200
O521        O  0.47461456  0.87805495  0.08978440    -0.70800
O522        O  0.01239953  0.94793966  0.16283563    -0.70200
O523        O  0.07319693  0.86281925  0.14937198    -0.71000
O524        O  0.47778250  0.93839130  0.12786035    -0.70400
O525        O  0.06317730  0.89737821  0.18427943    -0.70800
O526        O  0.00301956  0.90038731  0.22259210    -0.70700
O527        O  0.49698582  0.84961807  0.22259189    -0.70500
C528        C  0.50418570  0.79344097  0.14113183     0.81300
C529        C  0.50000093  0.87500280  0.07617834     0.81800
C530        C  0.41838701  0.87034371  0.17098913     0.80700
C531        C  0.49581635  0.95656354  0.14113305     0.81100
C532        C  0.08161619  0.87965946  0.17098651     0.82200
C533        C  0.50000300  0.87500269  0.23621005     0.81300
Zn534      Zn  0.46914894  0.89298089  0.38160564     1.49700
Zn535      Zn  0.48208534  0.84416302  0.43090698     1.49400
Zn536      Zn  0.03085372  0.85702297  0.38160626     1.49100
Zn537      Zn  0.01791584  0.90584270  0.43090685     1.49500
O538        O  0.50000097  0.87500249  0.40622071    -1.80000
O539        O  0.42686505  0.88653536  0.39978124    -0.70600
O540        O  0.48856078  0.80181049  0.41288010    -0.70400
O541        O  0.02544563  0.87247500  0.33986796    -0.70000
O542        O  0.43721537  0.85217597  0.43479032    -0.70600
O543        O  0.47455969  0.87752892  0.33986724    -0.70200
O544        O  0.02297369  0.81212038  0.37792024    -0.70800
O545        O  0.06278566  0.89782943  0.43479091    -0.70200
O546        O  0.49769882  0.84954285  0.47255728    -0.71000
O547        O  0.07313666  0.86346750  0.39978349    -0.70400
O548        O  0.00230151  0.90046379  0.47255730    -0.70800
O549        O  0.01144047  0.94819487  0.41287953    -0.70700
O550        O  0.47702784  0.93788358  0.37792026    -0.70500
C551        C  0.41866112  0.86986065  0.42158682     0.81300
C552        C  0.50534418  0.79355703  0.39117273     0.81800
C553        C  0.50000301  0.87500212  0.32624942     0.80700
C554        C  0.08134006  0.88014321  0.42158874     0.81100
C555        C  0.50000027  0.87500342  0.48617477     0.82200
C556        C  0.49465703  0.95644758  0.39117234     0.81300
Zn557      Zn  0.21914796  0.85702287  0.24334848     1.49700
Zn558      Zn  0.26791770  0.84415972  0.19404776     1.49400
Zn559      Zn  0.23208495  0.90584027  0.19404786     1.49100
Zn560      Zn  0.28085210  0.89297737  0.24334945     1.45500
O561        O  0.25000065  0.87499997  0.21873437    -1.80000
O562        O  0.22702719  0.81211988  0.24703183    -0.70600
O563        O  0.25230415  0.84953945  0.15239755    -0.70400
O564        O  0.18721520  0.89782919  0.19016328    -0.70000
O565        O  0.26144181  0.80180785  0.21207314    -0.70600
O566        O  0.17686482  0.86346997  0.22517195    -0.70200
O567        O  0.24769999  0.90046048  0.15239793    -0.70800
O568        O  0.27297247  0.93788036  0.24703374    -0.70200
O569        O  0.31278769  0.85217094  0.19016432    -0.71000
O570        O  0.23856003  0.94819222  0.21207389    -0.70400
O571        O  0.32313595  0.88653062  0.22517357    -0.70800
O572        O  0.27544215  0.87752653  0.28508786    -0.70700
O573        O  0.22455650  0.87247306  0.28508753    -0.70500
C574        C  0.24465700  0.79355529  0.23377919     0.81300
C575        C  0.25000211  0.87499993  0.13878036     0.81800
C576        C  0.16866112  0.88014481  0.20336612     0.80700
C577        C  0.25534358  0.95644490  0.23378066     0.81100
C578        C  0.33134078  0.86985574  0.20336771     0.82200
C579        C  0.24999913  0.87499949  0.29870586     0.81300
Zn580      Zn  0.28068437  0.89349181  0.49343535     1.49700
Zn581      Zn  0.23163918  0.90558452  0.44414606     1.49400
Zn582      Zn  0.26836115  0.84441609  0.44414563     1.49100
Zn583      Zn  0.21931606  0.85651010  0.49343641     1.49500
O584        O  0.25000012  0.87500059  0.46883044    -1.80000
O585        O  0.27221499  0.93838781  0.49709582    -0.70600
O586        O  0.24698082  0.90038422  0.40236340    -0.70400
O587        O  0.31317757  0.85262449  0.44067331    -0.70000
O588        O  0.23759884  0.94793699  0.46211932    -0.70600
O589        O  0.32319483  0.88718264  0.47558113    -0.70200
O590        O  0.25301862  0.84961508  0.40236340    -0.70800
O591        O  0.22778501  0.81161404  0.49709630    -0.70200
O592        O  0.18682282  0.89737664  0.44067538    -0.71000
O593        O  0.26240186  0.80206408  0.46211971    -0.70400
O594        O  0.17680512  0.86281975  0.47558381    -0.70800
O595        O  0.22461437  0.87195023  0.03517196    -0.70700
O596        O  0.27538725  0.87805155  0.03517079    -0.70500
C597        C  0.25418134  0.95656049  0.48382223     0.81300
C598        C  0.24999947  0.87499944  0.38874531     0.81800
C599        C  0.33161514  0.87034315  0.45396592     0.80700
C600        C  0.24581898  0.79344109  0.48382278     0.81100
C601        C  0.16838490  0.87965881  0.45396862     0.82200
C602        C  0.25000106  0.87500072  0.04877699     0.81300
Zn603      Zn  0.28040976  0.64393845  0.00656865     1.49700
Zn604      Zn  0.26867410  0.59467425  0.05588026     1.49400
Zn605      Zn  0.23132655  0.65532846  0.05588148     1.49100
Zn606      Zn  0.21958973  0.60606348  0.00656982     1.49500
O607        O  0.25000003  0.62500112  0.03113341    -1.80000
O608        O  0.32292490  0.63828655  0.02458382    -0.70600
O609        O  0.25309662  0.59963099  0.09758131    -0.70400
O610        O  0.23664016  0.69780253  0.03797118    -0.70000
O611        O  0.31331461  0.60364767  0.05953561    -0.70600
O612        O  0.27136007  0.68871552  0.00298233    -0.70200
O613        O  0.24690464  0.65037133  0.09758207    -0.70800
O614        O  0.17707508  0.61171571  0.02458659    -0.70200
O615        O  0.26336073  0.55220022  0.03796962    -0.71000
O616        O  0.18668583  0.64635554  0.05953789    -0.70400
O617        O  0.22863953  0.56128638  0.00298266    -0.70800
O618        O  0.22466466  0.62152133  0.46478617    -0.70700
O619        O  0.27533344  0.62848079  0.46478475    -0.70500
C620        C  0.33150750  0.62165994  0.04629316     0.81300
C621        C  0.25000076  0.62500115  0.11119927     0.81800
C622        C  0.25312281  0.70665785  0.01628514     0.80700
C623        C  0.16849270  0.62834299  0.04629603     0.81100
C624        C  0.24687752  0.54334446  0.01628444     0.82200
C625        C  0.24999879  0.62500122  0.45117437     0.81300
Zn626      Zn  0.28086125  0.60699622  0.25651824     1.49700
Zn627      Zn  0.26802558  0.65584861  0.30577637     1.49400
Zn628      Zn  0.21913757  0.64300474  0.25651753     1.49100
Zn629      Zn  0.23197077  0.59415355  0.30577605     1.49500
O630        O  0.24999876  0.62500069  0.28115161    -1.80000
O631        O  0.32322677  0.61348500  0.27454052    -0.70600
O632        O  0.26147385  0.69820275  0.28776254    -0.70400
O633        O  0.22456043  0.62754805  0.21480939    -0.70000
O634        O  0.31292839  0.64795088  0.30945455    -0.70600
O635        O  0.27544017  0.62245206  0.21480980    -0.70200
O636        O  0.22703172  0.68790230  0.25282603    -0.70800
O637        O  0.18706778  0.60205135  0.30945308    -0.70200
O638        O  0.25261256  0.65043605  0.34751504    -0.71000
O639        O  0.17677121  0.63651647  0.27453864    -0.70400
O640        O  0.24738222  0.59956710  0.34751492    -0.70800
O641        O  0.23852357  0.55179897  0.28776279    -0.70700
O642        O  0.27296740  0.56209845  0.25282709    -0.70500
C643        C  0.33148303  0.63028089  0.29623989     0.81300
C644        C  0.24467360  0.70646094  0.26606865     0.81800
C645        C  0.25000062  0.62500015  0.20119905     0.80700
C646        C  0.16851383  0.61972101  0.29623784     0.81100
C647        C  0.24999735  0.62500167  0.36113178     0.82200
C648        C  0.25532494  0.54354015  0.26606953     0.81300
C649        C  0.24999802  0.62500154  0.41948029    -0.09100
C650        C  0.24999755  0.62500178  0.39282399    -0.10700
C651        C  0.25000107  0.62500090  0.14287553    -0.09100
C652        C  0.25000117  0.62500044  0.16952181    -0.10700
C653        C  0.25177187  0.98733459  0.49476764    -0.09100
C654        C  0.24957107  0.51256628  0.00541379    -0.10700
C655        C  0.24822843  0.76266730  0.49476837    -0.09100
C656        C  0.25042918  0.73743589  0.00541472    -0.10700
C657        C  0.24999877  0.87499922  0.33039844    -0.09100
C658        C  0.24999902  0.87499908  0.35705378    -0.10700
C659        C  0.25000164  0.87500021  0.08045560    -0.09100
C660        C  0.25000202  0.87499992  0.10710291    -0.10700
C661        C  0.25403240  0.98732926  0.24460122    -0.09100
C662        C  0.25402458  0.51265300  0.25525402    -0.10700
C663        C  0.24597474  0.73734758  0.25525279    -0.09100
C664        C  0.24596769  0.76267109  0.24459968    -0.10700
C665        C  0.11214761  0.87860114  0.43258820    -0.09100
C666        C  0.13744849  0.87838338  0.44328861    -0.10700
C667        C  0.38785267  0.87140190  0.43258507    -0.09100
C668        C  0.36255162  0.87161897  0.44328512    -0.10700
C669        C  0.50000356  0.87500270  0.26790151    -0.09100
C670        C  0.50000377  0.87500251  0.29455685    -0.10700
C671        C  0.50000074  0.87500331  0.04449954    -0.09100
C672        C  0.50000043  0.87500362  0.01785228    -0.10700
C673        C  0.13785363  0.87860334  0.19236662    -0.09100
C674        C  0.11255286  0.87838477  0.18166619    -0.10700
C675        C  0.36214888  0.87139778  0.19236890    -0.09100
C676        C  0.38745000  0.87161716  0.18166910    -0.10700
C677        C  0.13764508  0.62106831  0.30710975    -0.09100
C678        C  0.11235087  0.62106760  0.31783373    -0.10700
C679        C  0.36235127  0.62893391  0.30711273    -0.09100
C680        C  0.38764496  0.62893498  0.31783720    -0.10700
C681        C  0.99597706  0.51265419  0.36969530    -0.09100
C682        C  0.49596890  0.98733118  0.38034983    -0.10700
C683        C  0.00402214  0.73734984  0.36969616    -0.09100
C684        C  0.50403153  0.76267314  0.38035033    -0.10700
C685        C  0.99999948  0.62500084  0.48207174    -0.09100
C686        C  0.99999891  0.62500099  0.45542548    -0.10700
C687        C  0.99999618  0.62500251  0.20546660    -0.09100
C688        C  0.99999615  0.62500219  0.23212299    -0.10700
C689        C  0.11235516  0.62651569  0.06783342    -0.09100
C690        C  0.13764361  0.62651644  0.05711495    -0.10700
C691        C  0.38764466  0.62348808  0.06783047    -0.09100
C692        C  0.36235676  0.62348706  0.05711159    -0.10700
C693        C  0.49822609  0.98733717  0.13018631    -0.09100
C694        C  0.50042840  0.51256780  0.11953859    -0.10700
C695        C  0.50177506  0.76266744  0.13018509    -0.09100
C696        C  0.49957187  0.73743636  0.11953758    -0.10700
Zn697      Zn  0.01867073  0.65532837  0.56906618     1.49700
Zn698      Zn  0.46958812  0.64394108  0.61837735     1.49400
Zn699      Zn  0.48132877  0.59467431  0.56906630     1.49100
Zn700      Zn  0.03040951  0.60606393  0.61837842     1.49500
O701        O  0.99999927  0.62500176  0.59381389    -1.80000
O702        O  0.01335806  0.69780268  0.58697820    -0.70600
O703        O  0.42707425  0.63828998  0.60035906    -0.70400
O704        O  0.49690804  0.59963054  0.52736566    -0.70000
O705        O  0.47863815  0.68871803  0.62196662    -0.70600
O706        O  0.00309204  0.65037142  0.52736580    -0.70200
O707        O  0.43668820  0.60364878  0.56540887    -0.70800
O708        O  0.02136052  0.56128694  0.62196746    -0.70200
O709        O  0.47466270  0.62848171  0.66016080    -0.71000
O710        O  0.48664182  0.55220044  0.58697876    -0.70400
O711        O  0.02533224  0.62152386  0.66016170    -0.70800
O712        O  0.07292430  0.61171535  0.60036170    -0.70700
O713        O  0.06331124  0.64635354  0.56540934    -0.70500
C714        C  0.99687602  0.70665914  0.60866493     0.81300
C715        C  0.41849363  0.62166207  0.57864990     0.81800
C716        C  0.99999992  0.62500094  0.51374813     0.80700
C717        C  0.00312340  0.54334510  0.60866564     0.81100
C718        C  0.99999709  0.62500278  0.67377242     0.82200
C719        C  0.08150551  0.62834171  0.57865188     0.81300
Zn720      Zn  0.03085908  0.64300455  0.86842921     1.49700
Zn721      Zn  0.01802665  0.59415303  0.81917056     1.49400
Zn722      Zn  0.46913738  0.60699847  0.86842989     1.49100
Zn723      Zn  0.48196869  0.65585071  0.81917222     1.49500
O724        O  0.99999799  0.62500178  0.84379551    -1.80000
O725        O  0.07322491  0.63651532  0.85040661    -0.70600
O726        O  0.01147585  0.55179830  0.83718457    -0.70400
O727        O  0.47455853  0.62245509  0.91013814    -0.70000
O728        O  0.06292943  0.60204992  0.81549224    -0.70600
O729        O  0.02543820  0.62754783  0.91013724    -0.70200
O730        O  0.47703343  0.56210069  0.87212164    -0.70800
O731        O  0.43706582  0.64795399  0.81549570    -0.70200
O732        O  0.00261408  0.59956740  0.77743174    -0.71000
O733        O  0.42677131  0.61348694  0.85040841    -0.70400
O734        O  0.49737971  0.65043646  0.77743251    -0.70800
O735        O  0.48852085  0.69820543  0.83718644    -0.70700
O736        O  0.02296414  0.68790257  0.87212167    -0.70500
C737        C  0.08148257  0.61971974  0.82870697     0.81300
C738        C  0.99467568  0.54354099  0.85887886     0.81800
C739        C  0.99999848  0.62500135  0.92374825     0.80700
C740        C  0.41851311  0.63028320  0.82870991     0.81100
C741        C  0.99999659  0.62500197  0.76381535     0.82200
C742        C  0.00532198  0.70646258  0.85887986     0.81300
Zn743      Zn  0.48164334  0.84441805  0.68080985     1.49700
Zn744      Zn  0.03068634  0.85650964  0.63151893     1.49400
Zn745      Zn  0.46931597  0.89349465  0.63152049     1.49100
Zn746      Zn  0.01836052  0.90558696  0.68080915     1.49500
O747        O  0.50000152  0.87500234  0.65612467    -1.80000
O748        O  0.48760380  0.80206514  0.66283584    -0.70600
O749        O  0.02538754  0.87195014  0.58978356    -0.70400
O750        O  0.42680571  0.88718358  0.64937433    -0.70000
O751        O  0.02221881  0.81161318  0.62785795    -0.70600
O752        O  0.43682651  0.85262600  0.68428189    -0.70200
O753        O  0.47461457  0.87805489  0.58978444    -0.70800
O754        O  0.01239950  0.94793972  0.66283560    -0.70200
O755        O  0.07319681  0.86281934  0.64937199    -0.71000
O756        O  0.47778246  0.93839127  0.62786034    -0.70400
O757        O  0.06317728  0.89737829  0.68427943    -0.70800
O758        O  0.00301951  0.90038743  0.72259210    -0.70700
O759        O  0.49698578  0.84961819  0.72259185    -0.70500
C760        C  0.50418562  0.79344100  0.64113177     0.81300
C761        C  0.50000098  0.87500276  0.57617829     0.81800
C762        C  0.41838697  0.87034367  0.67098916     0.80700
C763        C  0.49581635  0.95656358  0.64113293     0.81100
C764        C  0.08161613  0.87965955  0.67098654     0.82200
C765        C  0.50000298  0.87500286  0.73621006     0.81300
Zn766      Zn  0.46914891  0.89298087  0.88160558     1.49700
Zn767      Zn  0.48208538  0.84416302  0.93090691     1.49400
Zn768      Zn  0.03085375  0.85702293  0.88160629     1.49100
Zn769      Zn  0.01791576  0.90584268  0.93090684     1.49500
O770        O  0.50000096  0.87500249  0.90622060    -1.80000
O771        O  0.42686498  0.88653539  0.89978121    -0.70600
O772        O  0.48856081  0.80181046  0.91288006    -0.70400
O773        O  0.02544565  0.87247492  0.83986798    -0.70000
O774        O  0.43721540  0.85217599  0.93479025    -0.70600
O775        O  0.47455970  0.87752890  0.83986732    -0.70200
O776        O  0.02297384  0.81212030  0.87792034    -0.70800
O777        O  0.06278562  0.89782945  0.93479096    -0.70200
O778        O  0.49769881  0.84954289  0.97255726    -0.71000
O779        O  0.07313669  0.86346751  0.89978359    -0.70400
O780        O  0.00230136  0.90046383  0.97255731    -0.70800
O781        O  0.01144035  0.94819479  0.91287954    -0.70700
O782        O  0.47702782  0.93788349  0.87792021    -0.70500
C783        C  0.41866112  0.86986055  0.92158673     0.81300
C784        C  0.50534430  0.79355695  0.89117273     0.81800
C785        C  0.50000303  0.87500207  0.82624946     0.80700
C786        C  0.08134002  0.88014328  0.92158881     0.81100
C787        C  0.50000018  0.87500348  0.98617465     0.82200
C788        C  0.49465689  0.95644745  0.89117235     0.81300
Zn789      Zn  0.21914803  0.85702295  0.74334845     1.49700
Zn790      Zn  0.26791770  0.84415974  0.69404771     1.49400
Zn791      Zn  0.23208490  0.90584033  0.69404782     1.49100
Zn792      Zn  0.28085210  0.89297737  0.74334940     1.45500
O793        O  0.25000067  0.87500005  0.71873417    -1.80000
O794        O  0.22702729  0.81211999  0.74703191    -0.70600
O795        O  0.25230422  0.84953943  0.65239750    -0.70400
O796        O  0.18721515  0.89782938  0.69016327    -0.70000
O797        O  0.26144180  0.80180780  0.71207318    -0.70600
O798        O  0.17686490  0.86347003  0.72517186    -0.70200
O799        O  0.24769995  0.90046046  0.65239791    -0.70800
O800        O  0.27297246  0.93788030  0.74703370    -0.70200
O801        O  0.31278765  0.85217098  0.69016432    -0.71000
O802        O  0.23856006  0.94819229  0.71207388    -0.70400
O803        O  0.32313593  0.88653062  0.72517362    -0.70800
O804        O  0.27544221  0.87752659  0.78508780    -0.70700
O805        O  0.22455655  0.87247324  0.78508755    -0.70500
C806        C  0.24465695  0.79355537  0.73377923     0.81300
C807        C  0.25000213  0.87499993  0.63878031     0.81800
C808        C  0.16866120  0.88014490  0.70336602     0.80700
C809        C  0.25534368  0.95644486  0.73378062     0.81100
C810        C  0.33134084  0.86985577  0.70336775     0.82200
C811        C  0.24999925  0.87499974  0.79870590     0.81300
Zn812      Zn  0.28068428  0.89349180  0.99343536     1.49700
Zn813      Zn  0.23163911  0.90558455  0.94414607     1.49400
Zn814      Zn  0.26836108  0.84441611  0.94414565     1.49100
Zn815      Zn  0.21931599  0.85651005  0.99343640     1.49500
O816        O  0.25000001  0.87500063  0.96883054    -1.80000
O817        O  0.27221489  0.93838780  0.99709587    -0.70600
O818        O  0.24698072  0.90038430  0.90236338    -0.70400
O819        O  0.31317754  0.85262448  0.94067340    -0.70000
O820        O  0.23759875  0.94793708  0.96211939    -0.70600
O821        O  0.32319480  0.88718266  0.97558114    -0.70200
O822        O  0.25301860  0.84961515  0.90236340    -0.70800
O823        O  0.22778502  0.81161400  0.99709623    -0.70200
O824        O  0.18682272  0.89737663  0.94067541    -0.71000
O825        O  0.26240184  0.80206406  0.96211960    -0.70400
O826        O  0.17680509  0.86281970  0.97558382    -0.70800
O827        O  0.22461449  0.87195022  0.53517195    -0.70700
O828        O  0.27538737  0.87805157  0.53517074    -0.70500
C829        C  0.25418128  0.95656052  0.98382229     0.81300
C830        C  0.24999939  0.87499956  0.88874523     0.81800
C831        C  0.33161509  0.87034319  0.95396597     0.80700
C832        C  0.24581897  0.79344103  0.98382262     0.81100
C833        C  0.16838488  0.87965877  0.95396871     0.82200
C834        C  0.25000120  0.87500070  0.54877698     0.81300
Zn835      Zn  0.28040976  0.64393846  0.50656861     1.49700
Zn836      Zn  0.26867409  0.59467425  0.55588031     1.49400
Zn837      Zn  0.23132654  0.65532844  0.55588151     1.49100
Zn838      Zn  0.21958978  0.60606353  0.50656983     1.49500
O839        O  0.24999999  0.62500118  0.53113343    -1.80000
O840        O  0.32292487  0.63828653  0.52458383    -0.70600
O841        O  0.25309654  0.59963094  0.59758133    -0.70400
O842        O  0.23664016  0.69780247  0.53797121    -0.70000
O843        O  0.31331458  0.60364770  0.55953569    -0.70600
O844        O  0.27136003  0.68871553  0.50298229    -0.70200
O845        O  0.24690457  0.65037127  0.59758209    -0.70800
O846        O  0.17707514  0.61171572  0.52458664    -0.70200
O847        O  0.26336075  0.55220018  0.53796970    -0.71000
O848        O  0.18668582  0.64635553  0.55953793    -0.70400
O849        O  0.22863966  0.56128651  0.50298266    -0.70800
O850        O  0.22466458  0.62152123  0.96478616    -0.70700
O851        O  0.27533335  0.62848080  0.96478483    -0.70500
C852        C  0.33150748  0.62165988  0.54629321     0.81300
C853        C  0.25000071  0.62500103  0.61119936     0.81800
C854        C  0.25312281  0.70665785  0.51628523     0.80700
C855        C  0.16849279  0.62834299  0.54629603     0.81100
C856        C  0.24687752  0.54334448  0.51628447     0.82200
C857        C  0.24999865  0.62500118  0.95117440     0.81300
Zn858      Zn  0.28086130  0.60699622  0.75651825     1.49700
Zn859      Zn  0.26802568  0.65584860  0.80577639     1.49400
Zn860      Zn  0.21913755  0.64300473  0.75651753     1.49100
Zn861      Zn  0.23197074  0.59415366  0.80577599     1.49500
O862        O  0.24999890  0.62500078  0.78115155    -1.80000
O863        O  0.32322688  0.61348501  0.77454050    -0.70600
O864        O  0.26147394  0.69820268  0.78776252    -0.70400
O865        O  0.22456041  0.62754804  0.71480942    -0.70000
O866        O  0.31292847  0.64795086  0.80945460    -0.70600
O867        O  0.27544017  0.62245201  0.71480982    -0.70200
O868        O  0.22703173  0.68790228  0.75282609    -0.70800
O869        O  0.18706776  0.60205144  0.80945302    -0.70200
O870        O  0.25261263  0.65043606  0.84751513    -0.71000
O871        O  0.17677113  0.63651653  0.77453867    -0.70400
O872        O  0.24738209  0.59956714  0.84751485    -0.70800
O873        O  0.23852355  0.55179913  0.78776274    -0.70700
O874        O  0.27296753  0.56209846  0.75282711    -0.70500
C875        C  0.33148309  0.63028092  0.79623985     0.81300
C876        C  0.24467363  0.70646091  0.76606872     0.81800
C877        C  0.25000054  0.62500011  0.70119905     0.80700
C878        C  0.16851380  0.61972103  0.79623779     0.81100
C879        C  0.24999735  0.62500167  0.86113175     0.82200
C880        C  0.25532506  0.54354019  0.76606952     0.81300
C881        C  0.24999800  0.62500153  0.91948031    -0.09100
C882        C  0.24999752  0.62500173  0.89282402    -0.10700
C883        C  0.25000110  0.62500089  0.64287551    -0.09100
C884        C  0.25000110  0.62500043  0.66952195    -0.10700
C885        C  0.25177187  0.98733462  0.99476768    -0.09100
C886        C  0.24957102  0.51256633  0.50541378    -0.10700
C887        C  0.24822838  0.76266731  0.99476832    -0.09100
C888        C  0.25042923  0.73743588  0.50541478    -0.10700
C889        C  0.24999884  0.87499930  0.83039836    -0.09100
C890        C  0.24999893  0.87499920  0.85705380    -0.10700
C891        C  0.25000181  0.87500021  0.58045554    -0.09100
C892        C  0.25000217  0.87499998  0.60710287    -0.10700
C893        C  0.25403246  0.98732926  0.74460125    -0.09100
C894        C  0.25402458  0.51265319  0.75525408    -0.10700
C895        C  0.24597488  0.73734759  0.75525278    -0.09100
C896        C  0.24596767  0.76267109  0.74459976    -0.10700
C897        C  0.11214763  0.87860122  0.93258827    -0.09100
C898        C  0.13744848  0.87838335  0.94328861    -0.10700
C899        C  0.38785268  0.87140184  0.93258510    -0.09100
C900        C  0.36255167  0.87161899  0.94328516    -0.10700
C901        C  0.50000372  0.87500278  0.76790150    -0.09100
C902        C  0.50000374  0.87500249  0.79455693    -0.10700
C903        C  0.50000078  0.87500326  0.54449970    -0.09100
C904        C  0.50000041  0.87500360  0.51785221    -0.10700
C905        C  0.13785365  0.87860332  0.69236654    -0.09100
C906        C  0.11255283  0.87838479  0.68166630    -0.10700
C907        C  0.36214882  0.87139778  0.69236899    -0.09100
C908        C  0.38745011  0.87161716  0.68166908    -0.10700
C909        C  0.13764491  0.62106837  0.80710978    -0.09100
C910        C  0.11235087  0.62106760  0.81783376    -0.10700
C911        C  0.36235132  0.62893390  0.80711273    -0.09100
C912        C  0.38764498  0.62893490  0.81783708    -0.10700
C913        C  0.99597709  0.51265417  0.86969532    -0.09100
C914        C  0.49596888  0.98733117  0.88034976    -0.10700
C915        C  0.00402219  0.73734980  0.86969616    -0.09100
C916        C  0.50403154  0.76267311  0.88035032    -0.10700
C917        C  0.99999945  0.62500080  0.98207180    -0.09100
C918        C  0.99999891  0.62500098  0.95542548    -0.10700
C919        C  0.99999623  0.62500250  0.70546664    -0.09100
C920        C  0.99999619  0.62500218  0.73212294    -0.10700
C921        C  0.11235519  0.62651563  0.56783345    -0.09100
C922        C  0.13764345  0.62651644  0.55711501    -0.10700
C923        C  0.38764466  0.62348819  0.56783051    -0.09100
C924        C  0.36235661  0.62348711  0.55711167    -0.10700
C925        C  0.49822604  0.98733710  0.63018624    -0.09100
C926        C  0.50042839  0.51256789  0.61953856    -0.10700
C927        C  0.50177516  0.76266751  0.63018515    -0.09100
C928        C  0.49957189  0.73743633  0.61953757    -0.10700
Zn929      Zn  0.51867081  0.15532838  0.06906616     1.49700
Zn930      Zn  0.96958809  0.14394111  0.11837735     1.49400
Zn931      Zn  0.98132881  0.09467436  0.06906635     1.49100
Zn932      Zn  0.53040957  0.10606391  0.11837840     1.49500
O933        O  0.49999932  0.12500196  0.09381399    -1.80000
O934        O  0.51335817  0.19780276  0.08697818    -0.70600
O935        O  0.92707424  0.13828998  0.10035904    -0.70400
O936        O  0.99690805  0.09963051  0.02736575    -0.70000
O937        O  0.97863804  0.18871809  0.12196649    -0.70600
O938        O  0.50309218  0.15037137  0.02736579    -0.70200
O939        O  0.93668830  0.10364879  0.06540889    -0.70800
O940        O  0.52136064  0.06128683  0.12196740    -0.70200
O941        O  0.97466273  0.12848187  0.16016084    -0.71000
O942        O  0.98664181  0.05220046  0.08697883    -0.70400
O943        O  0.52533224  0.12152370  0.16016164    -0.70800
O944        O  0.57292441  0.11171532  0.10036167    -0.70700
O945        O  0.56331135  0.14635348  0.06540926    -0.70500
C946        C  0.49687617  0.20665904  0.10866485     0.81300
C947        C  0.91849368  0.12166202  0.07864993     0.81800
C948        C  0.49999993  0.12500081  0.01374810     0.80700
C949        C  0.50312347  0.04334508  0.10866563     0.81100
C950        C  0.49999707  0.12500271  0.17377240     0.82200
C951        C  0.58150569  0.12834171  0.07865179     0.81300
Zn952      Zn  0.53085910  0.14300459  0.36842919     1.49700
Zn953      Zn  0.51802668  0.09415306  0.31917053     1.49400
Zn954      Zn  0.96913741  0.10699854  0.36842987     1.49100
Zn955      Zn  0.98196875  0.15585072  0.31917221     1.49500
O956        O  0.49999803  0.12500177  0.34379537    -1.80000
O957        O  0.57322488  0.13651529  0.35040655    -0.70600
O958        O  0.51147600  0.05179835  0.33718463    -0.70400
O959        O  0.97455863  0.12245520  0.41013811    -0.70000
O960        O  0.56292947  0.10204995  0.31549209    -0.70600
O961        O  0.52543825  0.12754785  0.41013723    -0.70200
O962        O  0.97703343  0.06210074  0.37212160    -0.70800
O963        O  0.93706594  0.14795392  0.31549565    -0.70200
O964        O  0.50261401  0.09956735  0.27743177    -0.71000
O965        O  0.92677129  0.11348704  0.35040846    -0.70400
O966        O  0.99737982  0.15043644  0.27743254    -0.70800
O967        O  0.98852091  0.19820532  0.33718637    -0.70700
O968        O  0.52296416  0.18790259  0.37212166    -0.70500
C969        C  0.58148258  0.11971973  0.32870686     0.81300
C970        C  0.49467578  0.04354100  0.35887890     0.81800
C971        C  0.49999854  0.12500136  0.42374824     0.80700
C972        C  0.91851322  0.13028327  0.32870991     0.81100
C973        C  0.49999665  0.12500189  0.26381537     0.82200
C974        C  0.50532207  0.20646261  0.35887974     0.81300
Zn975      Zn  0.98164339  0.34441805  0.18080981     1.49700
Zn976      Zn  0.53068631  0.35650961  0.13151890     1.49400
Zn977      Zn  0.96931594  0.39349465  0.13152047     1.49100
Zn978      Zn  0.51836050  0.40558691  0.18080915     1.49500
O979        O  0.00000152  0.37500239  0.15612457    -1.80000
O980        O  0.98760389  0.30206517  0.16283589    -0.70600
O981        O  0.52538751  0.37195018  0.08978348    -0.70400
O982        O  0.92680567  0.38718356  0.14937434    -0.70000
O983        O  0.52221872  0.31161311  0.12785790    -0.70600
O984        O  0.93682653  0.35262599  0.18428186    -0.70200
O985        O  0.97461453  0.37805499  0.08978441    -0.70800
O986        O  0.51239956  0.44793967  0.16283561    -0.70200
O987        O  0.57319684  0.36281932  0.14937200    -0.71000
O988        O  0.97778251  0.43839129  0.12786032    -0.70400
O989        O  0.56317729  0.39737825  0.18427944    -0.70800
O990        O  0.50301952  0.40038732  0.22259209    -0.70700
O991        O  0.99698574  0.34961809  0.22259191    -0.70500
C992        C  0.00418562  0.29344108  0.14113188     0.81300
C993        C  0.00000087  0.37500286  0.07617834     0.81800
C994        C  0.91838694  0.37034355  0.17098912     0.80700
C995        C  0.99581636  0.45656351  0.14113302     0.81100
C996        C  0.58161616  0.37965950  0.17098651     0.82200
C997        C  0.00000302  0.37500269  0.23621008     0.81300
Zn998      Zn  0.96914889  0.39298093  0.38160563     1.49700
Zn999      Zn  0.98208533  0.34416306  0.43090697     1.49400
Zn1000     Zn  0.53085373  0.35702300  0.38160626     1.49100
Zn1001     Zn  0.51791583  0.40584274  0.43090685     1.49500
O1002       O  0.00000093  0.37500256  0.40622068    -1.80000
O1003       O  0.92686495  0.38653541  0.39978122    -0.70600
O1004       O  0.98856080  0.30181054  0.41288013    -0.70400
O1005       O  0.52544561  0.37247503  0.33986793    -0.70000
O1006       O  0.93721532  0.35217604  0.43479030    -0.70600
O1007       O  0.97455966  0.37752898  0.33986723    -0.70200
O1008       O  0.52297374  0.31212043  0.37792029    -0.70800
O1009       O  0.56278567  0.39782945  0.43479095    -0.70200
O1010       O  0.99769881  0.34954290  0.47255729    -0.71000
O1011       O  0.57313664  0.36346759  0.39978347    -0.70400
O1012       O  0.50230146  0.40046384  0.47255728    -0.70800
O1013       O  0.51144050  0.44819487  0.41287954    -0.70700
O1014       O  0.97702777  0.43788359  0.37792029    -0.70500
C1015       C  0.91866104  0.36986069  0.42158683     0.81300
C1016       C  0.00534420  0.29355702  0.39117276     0.81800
C1017       C  0.00000301  0.37500215  0.32624943     0.80700
C1018       C  0.58133995  0.38014327  0.42158873     0.81100
C1019       C  0.00000012  0.37500348  0.48617478     0.82200
C1020       C  0.99465698  0.45644760  0.39117234     0.81300
Zn1021     Zn  0.71914796  0.35702287  0.24334847     1.49700
Zn1022     Zn  0.76791771  0.34415972  0.19404775     1.49400
Zn1023     Zn  0.73208489  0.40584026  0.19404786     1.49100
Zn1024     Zn  0.78085214  0.39297728  0.24334945     1.45500
O1025       O  0.75000073  0.37500007  0.21873432    -1.80000
O1026       O  0.72702719  0.31211993  0.24703192    -0.70600
O1027       O  0.75230420  0.34953943  0.15239753    -0.70400
O1028       O  0.68721509  0.39782923  0.19016326    -0.70000
O1029       O  0.76144179  0.30180788  0.21207322    -0.70600
O1030       O  0.67686484  0.36346994  0.22517192    -0.70200
O1031       O  0.74769995  0.40046048  0.15239795    -0.70800
O1032       O  0.77297253  0.43788027  0.24703372    -0.70200
O1033       O  0.81278768  0.35217095  0.19016426    -0.71000
O1034       O  0.73856004  0.44819217  0.21207392    -0.70400
O1035       O  0.82313600  0.38653056  0.22517362    -0.70800
O1036       O  0.77544222  0.37752643  0.28508787    -0.70700
O1037       O  0.72455656  0.37247306  0.28508754    -0.70500
C1038       C  0.74465687  0.29355535  0.23377924     0.81300
C1039       C  0.75000215  0.37499989  0.13878036     0.81800
C1040       C  0.66866110  0.38014484  0.20336613     0.80700
C1041       C  0.75534361  0.45644476  0.23378068     0.81100
C1042       C  0.83134088  0.36985567  0.20336771     0.82200
C1043       C  0.74999919  0.37499959  0.29870587     0.81300
Zn1044     Zn  0.78068434  0.39349186  0.49343535     1.49700
Zn1045     Zn  0.73163910  0.40558454  0.44414606     1.49400
Zn1046     Zn  0.76836113  0.34441613  0.44414562     1.49100
Zn1047     Zn  0.71931605  0.35651007  0.49343642     1.49500
O1048       O  0.75000018  0.37500061  0.46883044    -1.80000
O1049       O  0.77221492  0.43838782  0.49709580    -0.70600
O1050       O  0.74698067  0.40038426  0.40236340    -0.70400
O1051       O  0.81317755  0.35262455  0.44067328    -0.70000
O1052       O  0.73759878  0.44793702  0.46211928    -0.70600
O1053       O  0.82319483  0.38718269  0.47558114    -0.70200
O1054       O  0.75301856  0.34961513  0.40236342    -0.70800
O1055       O  0.72778504  0.31161399  0.49709630    -0.70200
O1056       O  0.68682270  0.39737670  0.44067540    -0.71000
O1057       O  0.76240191  0.30206414  0.46211970    -0.70400
O1058       O  0.67680517  0.36281973  0.47558379    -0.70800
O1059       O  0.72461443  0.37195028  0.03517196    -0.70700
O1060       O  0.77538730  0.37805160  0.03517079    -0.70500
C1061       C  0.75418124  0.45656052  0.48382221     0.81300
C1062       C  0.74999940  0.37499949  0.38874532     0.81800
C1063       C  0.83161515  0.37034322  0.45396586     0.80700
C1064       C  0.74581905  0.29344115  0.48382277     0.81100
C1065       C  0.66838496  0.37965883  0.45396867     0.82200
C1066       C  0.75000112  0.37500078  0.04877700     0.81300
Zn1067     Zn  0.78040979  0.14393851  0.00656866     1.49700
Zn1068     Zn  0.76867405  0.09467430  0.05588028     1.49400
Zn1069     Zn  0.73132652  0.15532850  0.05588147     1.49100
Zn1070     Zn  0.71958975  0.10606353  0.00656980     1.49500
O1071       O  0.74999998  0.12500132  0.03113340    -1.80000
O1072       O  0.82292491  0.13828659  0.02458380    -0.70600
O1073       O  0.75309651  0.09963100  0.09758131    -0.70400
O1074       O  0.73664015  0.19780256  0.03797118    -0.70000
O1075       O  0.81331454  0.10364772  0.05953558    -0.70600
O1076       O  0.77136012  0.18871559  0.00298235    -0.70200
O1077       O  0.74690454  0.15037131  0.09758205    -0.70800
O1078       O  0.67707510  0.11171575  0.02458661    -0.70200
O1079       O  0.76336067  0.05220022  0.03796963    -0.71000
O1080       O  0.68668576  0.14635561  0.05953791    -0.70400
O1081       O  0.72863956  0.06128639  0.00298257    -0.70800
O1082       O  0.72466462  0.12152134  0.46478621    -0.70700
O1083       O  0.77533339  0.12848076  0.46478479    -0.70500
C1084       C  0.83150749  0.12165998  0.04629315     0.81300
C1085       C  0.75000078  0.12500112  0.11119927     0.81800
C1086       C  0.75312282  0.20665788  0.01628515     0.80700
C1087       C  0.66849268  0.12834304  0.04629604     0.81100
C1088       C  0.74687747  0.04334448  0.01628442     0.82200
C1089       C  0.74999871  0.12500118  0.45117439     0.81300
Zn1090     Zn  0.78086126  0.10699624  0.25651824     1.49700
Zn1091     Zn  0.76802562  0.15584856  0.30577635     1.49400
Zn1092     Zn  0.71913752  0.14300472  0.25651752     1.49100
Zn1093     Zn  0.73197070  0.09415358  0.30577607     1.49500
O1094       O  0.74999877  0.12500075  0.28115159    -1.80000
O1095       O  0.82322679  0.11348503  0.27454048    -0.70600
O1096       O  0.76147384  0.19820262  0.28776254    -0.70400
O1097       O  0.72456037  0.12754803  0.21480940    -0.70000
O1098       O  0.81292841  0.14795084  0.30945455    -0.70600
O1099       O  0.77544014  0.12245214  0.21480978    -0.70200
O1100       O  0.72703170  0.18790233  0.25282603    -0.70800
O1101       O  0.68706764  0.10205139  0.30945309    -0.70200
O1102       O  0.75261267  0.15043601  0.34751504    -0.71000
O1103       O  0.67677105  0.13651653  0.27453869    -0.70400
O1104       O  0.74738211  0.09956707  0.34751496    -0.70800
O1105       O  0.73852351  0.05179906  0.28776278    -0.70700
O1106       O  0.77296741  0.06209853  0.25282711    -0.70500
C1107       C  0.83148301  0.13028098  0.29623982     0.81300
C1108       C  0.74467361  0.20646090  0.26606868     0.81800
C1109       C  0.75000053  0.12500013  0.20119907     0.80700
C1110       C  0.66851378  0.11972105  0.29623784     0.81100
C1111       C  0.74999729  0.12500161  0.36113179     0.82200
C1112       C  0.75532492  0.04354016  0.26606952     0.81300
C1113       C  0.74999802  0.12500155  0.41948031    -0.09100
C1114       C  0.74999749  0.12500177  0.39282400    -0.10700
C1115       C  0.75000108  0.12500092  0.14287554    -0.09100
C1116       C  0.75000105  0.12500045  0.16952183    -0.10700
C1117       C  0.75177186  0.48733458  0.49476762    -0.09100
C1118       C  0.74957106  0.01256628  0.00541378    -0.10700
C1119       C  0.74822853  0.26266728  0.49476835    -0.09100
C1120       C  0.75042917  0.23743593  0.00541471    -0.10700
C1121       C  0.74999881  0.37499922  0.33039845    -0.09100
C1122       C  0.74999897  0.37499910  0.35705380    -0.10700
C1123       C  0.75000170  0.37500026  0.08045560    -0.09100
C1124       C  0.75000210  0.37499992  0.10710292    -0.10700
C1125       C  0.75403241  0.48732922  0.24460127    -0.09100
C1126       C  0.75402462  0.01265315  0.25525405    -0.10700
C1127       C  0.74597484  0.23734768  0.25525289    -0.09100
C1128       C  0.74596758  0.26267108  0.24459969    -0.10700
C1129       C  0.61214770  0.37860123  0.43258823    -0.09100
C1130       C  0.63744834  0.37838345  0.44328865    -0.10700
C1131       C  0.88785269  0.37140189  0.43258513    -0.09100
C1132       C  0.86255151  0.37161899  0.44328516    -0.10700
C1133       C  0.00000358  0.37500277  0.26790153    -0.09100
C1134       C  0.00000378  0.37500249  0.29455686    -0.10700
C1135       C  0.00000069  0.37500336  0.04449953    -0.09100
C1136       C  0.00000039  0.37500360  0.01785227    -0.10700
C1137       C  0.63785364  0.37860325  0.19236663    -0.09100
C1138       C  0.61255288  0.37838476  0.18166617    -0.10700
C1139       C  0.86214883  0.37139772  0.19236893    -0.09100
C1140       C  0.88745005  0.37161713  0.18166905    -0.10700
C1141       C  0.63764490  0.12106829  0.30710981    -0.09100
C1142       C  0.61235088  0.12106764  0.31783375    -0.10700
C1143       C  0.86235134  0.12893387  0.30711280    -0.09100
C1144       C  0.88764497  0.12893490  0.31783716    -0.10700
C1145       C  0.49597715  0.01265418  0.36969532    -0.09100
C1146       C  0.99596892  0.48733115  0.38034983    -0.10700
C1147       C  0.50402211  0.23734980  0.36969608    -0.09100
C1148       C  0.00403155  0.26267312  0.38035034    -0.10700
C1149       C  0.49999949  0.12500090  0.48207179    -0.09100
C1150       C  0.49999892  0.12500105  0.45542546    -0.10700
C1151       C  0.49999620  0.12500253  0.20546660    -0.09100
C1152       C  0.49999612  0.12500210  0.23212300    -0.10700
C1153       C  0.61235515  0.12651567  0.06783339    -0.09100
C1154       C  0.63764358  0.12651646  0.05711493    -0.10700
C1155       C  0.88764465  0.12348801  0.06783044    -0.09100
C1156       C  0.86235670  0.12348709  0.05711160    -0.10700
C1157       C  0.99822609  0.48733712  0.13018630    -0.09100
C1158       C  0.00042839  0.01256782  0.11953854    -0.10700
C1159       C  0.00177512  0.26266735  0.13018511    -0.09100
C1160       C  0.99957194  0.23743647  0.11953760    -0.10700
Zn1161     Zn  0.51867080  0.15532836  0.56906615     1.49700
Zn1162     Zn  0.96958812  0.14394109  0.61837735     1.49400
Zn1163     Zn  0.98132881  0.09467435  0.56906629     1.49100
Zn1164     Zn  0.53040954  0.10606399  0.61837840     1.49500
O1165       O  0.49999931  0.12500180  0.59381389    -1.80000
O1166       O  0.51335817  0.19780273  0.58697825    -0.70600
O1167       O  0.92707426  0.13829000  0.60035908    -0.70400
O1168       O  0.99690808  0.09963058  0.52736566    -0.70000
O1169       O  0.97863808  0.18871806  0.62196661    -0.70600
O1170       O  0.50309206  0.15037147  0.52736579    -0.70200
O1171       O  0.93668824  0.10364881  0.56540887    -0.70800
O1172       O  0.52136057  0.06128696  0.62196744    -0.70200
O1173       O  0.97466274  0.12848175  0.66016081    -0.71000
O1174       O  0.98664186  0.05220047  0.58697875    -0.70400
O1175       O  0.52533226  0.12152388  0.66016170    -0.70800
O1176       O  0.57292433  0.11171540  0.60036165    -0.70700
O1177       O  0.56331127  0.14635351  0.56540925    -0.70500
C1178       C  0.49687611  0.20665904  0.60866492     0.81300
C1179       C  0.91849372  0.12166214  0.57864995     0.81800
C1180       C  0.49999993  0.12500099  0.51374806     0.80700
C1181       C  0.50312341  0.04334510  0.60866566     0.81100
C1182       C  0.49999711  0.12500277  0.67377241     0.82200
C1183       C  0.58150555  0.12834177  0.57865178     0.81300
Zn1184     Zn  0.53085912  0.14300456  0.86842919     1.49700
Zn1185     Zn  0.51802667  0.09415304  0.81917051     1.49400
Zn1186     Zn  0.96913741  0.10699851  0.86842988     1.49100
Zn1187     Zn  0.98196871  0.15585076  0.81917220     1.49500
O1188       O  0.49999794  0.12500180  0.84379543    -1.80000
O1189       O  0.57322494  0.13651530  0.85040660    -0.70600
O1190       O  0.51147587  0.05179831  0.83718457    -0.70400
O1191       O  0.97455855  0.12245518  0.91013813    -0.70000
O1192       O  0.56292947  0.10204995  0.81549219    -0.70600
O1193       O  0.52543822  0.12754780  0.91013722    -0.70200
O1194       O  0.97703349  0.06210074  0.87212162    -0.70800
O1195       O  0.93706583  0.14795404  0.81549569    -0.70200
O1196       O  0.50261410  0.09956737  0.77743166    -0.71000
O1197       O  0.92677131  0.11348698  0.85040841    -0.70400
O1198       O  0.99737977  0.15043645  0.77743246    -0.70800
O1199       O  0.98852089  0.19820546  0.83718642    -0.70700
O1200       O  0.52296418  0.18790258  0.87212166    -0.70500
C1201       C  0.58148268  0.11971974  0.82870692     0.81300
C1202       C  0.49467571  0.04354106  0.85887880     0.81800
C1203       C  0.49999851  0.12500133  0.92374823     0.80700
C1204       C  0.91851311  0.13028326  0.82870991     0.81100
C1205       C  0.49999659  0.12500192  0.76381529     0.82200
C1206       C  0.50532202  0.20646261  0.85887986     0.81300
Zn1207     Zn  0.98164336  0.34441802  0.68080986     1.49700
Zn1208     Zn  0.53068636  0.35650959  0.63151891     1.49400
Zn1209     Zn  0.96931593  0.39349465  0.63152049     1.49100
Zn1210     Zn  0.51836052  0.40558689  0.68080915     1.49500
O1211       O  0.00000148  0.37500226  0.65612459    -1.80000
O1212       O  0.98760386  0.30206511  0.66283589    -0.70600
O1213       O  0.52538755  0.37195011  0.58978356    -0.70400
O1214       O  0.92680564  0.38718361  0.64937441    -0.70000
O1215       O  0.52221876  0.31161312  0.62785796    -0.70600
O1216       O  0.93682649  0.35262599  0.68428190    -0.70200
O1217       O  0.97461455  0.37805494  0.58978443    -0.70800
O1218       O  0.51239946  0.44793960  0.66283561    -0.70200
O1219       O  0.57319689  0.36281926  0.64937198    -0.71000
O1220       O  0.97778244  0.43839125  0.62786037    -0.70400
O1221       O  0.56317727  0.39737824  0.68427942    -0.70800
O1222       O  0.50301951  0.40038733  0.72259207    -0.70700
O1223       O  0.99698580  0.34961810  0.72259187    -0.70500
C1224       C  0.00418561  0.29344107  0.64113185     0.81300
C1225       C  0.00000099  0.37500279  0.57617830     0.81800
C1226       C  0.91838701  0.37034363  0.67098917     0.80700
C1227       C  0.99581636  0.45656350  0.64113296     0.81100
C1228       C  0.58161610  0.37965947  0.67098651     0.82200
C1229       C  0.00000300  0.37500271  0.73621007     0.81300
Zn1230     Zn  0.96914893  0.39298089  0.88160559     1.49700
Zn1231     Zn  0.98208533  0.34416301  0.93090691     1.49400
Zn1232     Zn  0.53085371  0.35702298  0.88160628     1.49100
Zn1233     Zn  0.51791580  0.40584270  0.93090684     1.49500
O1234       O  0.00000094  0.37500250  0.90622063    -1.80000
O1235       O  0.92686499  0.38653544  0.89978119    -0.70600
O1236       O  0.98856081  0.30181052  0.91288010    -0.70400
O1237       O  0.52544559  0.37247496  0.83986799    -0.70000
O1238       O  0.93721535  0.35217597  0.93479018    -0.70600
O1239       O  0.97455971  0.37752894  0.83986733    -0.70200
O1240       O  0.52297378  0.31212036  0.87792031    -0.70800
O1241       O  0.56278566  0.39782944  0.93479097    -0.70200
O1242       O  0.99769866  0.34954288  0.97255728    -0.71000
O1243       O  0.57313666  0.36346754  0.89978354    -0.70400
O1244       O  0.50230142  0.40046384  0.97255732    -0.70800
O1245       O  0.51144041  0.44819485  0.91287952    -0.70700
O1246       O  0.97702786  0.43788355  0.87792023    -0.70500
C1247       C  0.91866108  0.36986068  0.92158668     0.81300
C1248       C  0.00534425  0.29355698  0.89117277     0.81800
C1249       C  0.00000305  0.37500213  0.82624946     0.80700
C1250       C  0.58134003  0.38014323  0.92158879     0.81100
C1251       C  0.00000010  0.37500344  0.98617466     0.82200
C1252       C  0.99465699  0.45644755  0.89117237     0.81300
Zn1253     Zn  0.71914804  0.35702287  0.74334847     1.49700
Zn1254     Zn  0.76791771  0.34415973  0.69404771     1.49400
Zn1255     Zn  0.73208494  0.40584027  0.69404785     1.49100
Zn1256     Zn  0.78085211  0.39297738  0.74334939     1.45500
O1257       O  0.75000071  0.37499994  0.71873423    -1.80000
O1258       O  0.72702733  0.31211991  0.74703191    -0.70600
O1259       O  0.75230415  0.34953944  0.65239752    -0.70400
O1260       O  0.68721521  0.39782926  0.69016325    -0.70000
O1261       O  0.76144184  0.30180787  0.71207315    -0.70600
O1262       O  0.67686494  0.36347001  0.72517191    -0.70200
O1263       O  0.74770000  0.40046048  0.65239793    -0.70800
O1264       O  0.77297249  0.43788037  0.74703367    -0.70200
O1265       O  0.81278771  0.35217099  0.69016427    -0.71000
O1266       O  0.73856003  0.44819224  0.71207393    -0.70400
O1267       O  0.82313592  0.38653061  0.72517358    -0.70800
O1268       O  0.77544216  0.37752657  0.78508778    -0.70700
O1269       O  0.72455650  0.37247310  0.78508756    -0.70500
C1270       C  0.74465701  0.29355533  0.73377923     0.81300
C1271       C  0.75000219  0.37499996  0.63878032     0.81800
C1272       C  0.66866128  0.38014482  0.70336604     0.80700
C1273       C  0.75534363  0.45644491  0.73378061     0.81100
C1274       C  0.83134080  0.36985574  0.70336772     0.82200
C1275       C  0.74999913  0.37499954  0.79870588     0.81300
Zn1276     Zn  0.78068434  0.39349182  0.99343537     1.49700
Zn1277     Zn  0.73163918  0.40558451  0.94414608     1.49400
Zn1278     Zn  0.76836114  0.34441612  0.94414564     1.49100
Zn1279     Zn  0.71931605  0.35651011  0.99343641     1.49500
O1280       O  0.75000010  0.37500060  0.96883057    -1.80000
O1281       O  0.77221498  0.43838781  0.99709585    -0.70600
O1282       O  0.74698080  0.40038423  0.90236338    -0.70400
O1283       O  0.81317758  0.35262451  0.94067336    -0.70000
O1284       O  0.73759882  0.44793697  0.96211936    -0.70600
O1285       O  0.82319484  0.38718265  0.97558118    -0.70200
O1286       O  0.75301865  0.34961512  0.90236342    -0.70800
O1287       O  0.72778504  0.31161405  0.99709623    -0.70200
O1288       O  0.68682279  0.39737662  0.94067538    -0.71000
O1289       O  0.76240187  0.30206410  0.96211961    -0.70400
O1290       O  0.67680514  0.36281974  0.97558384    -0.70800
O1291       O  0.72461445  0.37195017  0.53517194    -0.70700
O1292       O  0.77538732  0.37805161  0.53517072    -0.70500
C1293       C  0.75418134  0.45656049  0.98382226     0.81300
C1294       C  0.74999947  0.37499947  0.88874523     0.81800
C1295       C  0.83161514  0.37034316  0.95396597     0.80700
C1296       C  0.74581898  0.29344108  0.98382262     0.81100
C1297       C  0.66838492  0.37965880  0.95396871     0.82200
C1298       C  0.75000108  0.37500073  0.54877697     0.81300
Zn1299     Zn  0.78040979  0.14393846  0.50656860     1.49700
Zn1300     Zn  0.76867412  0.09467425  0.55588029     1.49400
Zn1301     Zn  0.73132658  0.15532847  0.55588149     1.49100
Zn1302     Zn  0.71958983  0.10606352  0.50656985     1.49500
O1303       O  0.75000003  0.12500118  0.53113341    -1.80000
O1304       O  0.82292492  0.13828650  0.52458382    -0.70600
O1305       O  0.75309660  0.09963101  0.59758132    -0.70400
O1306       O  0.73664017  0.19780250  0.53797119    -0.70000
O1307       O  0.81331463  0.10364769  0.55953566    -0.70600
O1308       O  0.77136007  0.18871557  0.50298233    -0.70200
O1309       O  0.74690463  0.15037134  0.59758209    -0.70800
O1310       O  0.67707523  0.11171570  0.52458666    -0.70200
O1311       O  0.76336076  0.05220017  0.53796968    -0.71000
O1312       O  0.68668586  0.14635556  0.55953792    -0.70400
O1313       O  0.72863967  0.06128642  0.50298262    -0.70800
O1314       O  0.72466465  0.12152130  0.96478617    -0.70700
O1315       O  0.77533343  0.12848086  0.96478484    -0.70500
C1316       C  0.83150750  0.12165995  0.54629319     0.81300
C1317       C  0.75000074  0.12500117  0.61119936     0.81800
C1318       C  0.75312280  0.20665782  0.51628526     0.80700
C1319       C  0.66849286  0.12834298  0.54629604     0.81100
C1320       C  0.74687754  0.04334444  0.51628446     0.82200
C1321       C  0.74999880  0.12500125  0.95117440     0.81300
Zn1322     Zn  0.78086133  0.10699621  0.75651823     1.49700
Zn1323     Zn  0.76802563  0.15584853  0.80577635     1.49400
Zn1324     Zn  0.71913757  0.14300473  0.75651754     1.49100
Zn1325     Zn  0.73197077  0.09415356  0.80577601     1.49500
O1326       O  0.74999884  0.12500071  0.78115153    -1.80000
O1327       O  0.82322689  0.11348501  0.77454049    -0.70600
O1328       O  0.76147393  0.19820261  0.78776258    -0.70400
O1329       O  0.72456044  0.12754808  0.71480942    -0.70000
O1330       O  0.81292840  0.14795081  0.80945457    -0.70600
O1331       O  0.77544020  0.12245205  0.71480981    -0.70200
O1332       O  0.72703174  0.18790231  0.75282611    -0.70800
O1333       O  0.68706781  0.10205137  0.80945301    -0.70200
O1334       O  0.75261261  0.15043599  0.84751512    -0.71000
O1335       O  0.67677115  0.13651648  0.77453863    -0.70400
O1336       O  0.74738215  0.09956705  0.84751489    -0.70800
O1337       O  0.73852361  0.05179903  0.78776274    -0.70700
O1338       O  0.77296755  0.06209845  0.75282712    -0.70500
C1339       C  0.83148309  0.13028089  0.79623988     0.81300
C1340       C  0.74467372  0.20646089  0.76606879     0.81800
C1341       C  0.75000063  0.12500016  0.70119905     0.80700
C1342       C  0.66851381  0.11972099  0.79623778     0.81100
C1343       C  0.74999739  0.12500157  0.86113177     0.82200
C1344       C  0.75532512  0.04354018  0.76606956     0.81300
C1345       C  0.74999805  0.12500158  0.91948032    -0.09100
C1346       C  0.74999756  0.12500170  0.89282402    -0.10700
C1347       C  0.75000105  0.12500092  0.64287551    -0.09100
C1348       C  0.75000116  0.12500045  0.66952195    -0.10700
C1349       C  0.75177188  0.48733458  0.99476762    -0.09100
C1350       C  0.74957111  0.01256626  0.50541380    -0.10700
C1351       C  0.74822845  0.26266735  0.99476831    -0.09100
C1352       C  0.75042924  0.23743596  0.50541476    -0.10700
C1353       C  0.74999877  0.37499927  0.83039835    -0.09100
C1354       C  0.74999897  0.37499912  0.85705378    -0.10700
C1355       C  0.75000171  0.37500026  0.58045554    -0.09100
C1356       C  0.75000211  0.37500002  0.60710287    -0.10700
C1357       C  0.75403240  0.48732931  0.74460124    -0.09100
C1358       C  0.75402465  0.01265307  0.75525404    -0.10700
C1359       C  0.74597494  0.23734758  0.75525286    -0.09100
C1360       C  0.74596773  0.26267107  0.74459973    -0.10700
C1361       C  0.61214766  0.37860118  0.93258822    -0.09100
C1362       C  0.63744851  0.37838339  0.94328859    -0.10700
C1363       C  0.88785265  0.37140192  0.93258502    -0.09100
C1364       C  0.86255165  0.37161899  0.94328516    -0.10700
C1365       C  0.00000370  0.37500270  0.76790151    -0.09100
C1366       C  0.00000374  0.37500252  0.79455694    -0.10700
C1367       C  0.00000081  0.37500333  0.54449972    -0.09100
C1368       C  0.00000035  0.37500368  0.51785222    -0.10700
C1369       C  0.63785362  0.37860332  0.69236651    -0.09100
C1370       C  0.61255288  0.37838480  0.68166625    -0.10700
C1371       C  0.86214891  0.37139774  0.69236895    -0.09100
C1372       C  0.88745003  0.37161709  0.68166911    -0.10700
C1373       C  0.63764506  0.12106825  0.80710975    -0.09100
C1374       C  0.61235089  0.12106764  0.81783378    -0.10700
C1375       C  0.86235125  0.12893397  0.80711277    -0.09100
C1376       C  0.88764505  0.12893499  0.81783710    -0.10700
C1377       C  0.49597713  0.01265409  0.86969531    -0.09100
C1378       C  0.99596885  0.48733118  0.88034981    -0.10700
C1379       C  0.50402223  0.23734982  0.86969612    -0.09100
C1380       C  0.00403160  0.26267314  0.88035034    -0.10700
C1381       C  0.49999943  0.12500073  0.98207180    -0.09100
C1382       C  0.49999892  0.12500098  0.95542547    -0.10700
C1383       C  0.49999623  0.12500255  0.70546662    -0.09100
C1384       C  0.49999618  0.12500214  0.73212291    -0.10700
C1385       C  0.61235524  0.12651566  0.56783338    -0.09100
C1386       C  0.63764353  0.12651639  0.55711500    -0.10700
C1387       C  0.88764465  0.12348810  0.56783053    -0.09100
C1388       C  0.86235676  0.12348711  0.55711168    -0.10700
C1389       C  0.99822608  0.48733713  0.63018627    -0.09100
C1390       C  0.00042839  0.01256797  0.61953856    -0.10700
C1391       C  0.00177509  0.26266737  0.63018519    -0.09100
C1392       C  0.99957186  0.23743648  0.61953762    -0.10700
Zn1393     Zn  0.51867082  0.65532841  0.06906615     1.49700
Zn1394     Zn  0.96958806  0.64394111  0.11837735     1.49400
Zn1395     Zn  0.98132878  0.59467435  0.06906636     1.49100
Zn1396     Zn  0.53040957  0.60606397  0.11837840     1.49500
O1397       O  0.49999937  0.62500184  0.09381393    -1.80000
O1398       O  0.51335814  0.69780279  0.08697817    -0.70600
O1399       O  0.92707419  0.63829001  0.10035907    -0.70400
O1400       O  0.99690803  0.59963057  0.02736576    -0.70000
O1401       O  0.97863802  0.68871808  0.12196652    -0.70600
O1402       O  0.50309218  0.65037143  0.02736578    -0.70200
O1403       O  0.93668828  0.60364881  0.06540894    -0.70800
O1404       O  0.52136058  0.56128690  0.12196739    -0.70200
O1405       O  0.97466268  0.62848181  0.16016084    -0.71000
O1406       O  0.98664180  0.55220042  0.08697883    -0.70400
O1407       O  0.52533225  0.62152385  0.16016166    -0.70800
O1408       O  0.57292440  0.61171535  0.10036167    -0.70700
O1409       O  0.56331133  0.64635354  0.06540930    -0.70500
C1410       C  0.49687616  0.70665913  0.10866489     0.81300
C1411       C  0.91849367  0.62166213  0.07864995     0.81800
C1412       C  0.49999990  0.62500093  0.01374810     0.80700
C1413       C  0.50312345  0.54334511  0.10866564     0.81100
C1414       C  0.49999707  0.62500281  0.17377240     0.82200
C1415       C  0.58150570  0.62834170  0.07865182     0.81300
Zn1416     Zn  0.53085912  0.64300457  0.36842920     1.49700
Zn1417     Zn  0.51802667  0.59415307  0.31917055     1.49400
Zn1418     Zn  0.96913741  0.60699851  0.36842986     1.49100
Zn1419     Zn  0.98196873  0.65585075  0.31917221     1.49500
O1420       O  0.49999806  0.62500182  0.34379538    -1.80000
O1421       O  0.57322496  0.63651535  0.35040654    -0.70600
O1422       O  0.51147596  0.55179835  0.33718461    -0.70400
O1423       O  0.97455861  0.62245515  0.41013808    -0.70000
O1424       O  0.56292946  0.60204997  0.31549214    -0.70600
O1425       O  0.52543827  0.62754780  0.41013719    -0.70200
O1426       O  0.97703344  0.56210074  0.37212158    -0.70800
O1427       O  0.93706586  0.64795401  0.31549570    -0.70200
O1428       O  0.50261399  0.59956741  0.27743177    -0.71000
O1429       O  0.92677130  0.61348702  0.35040843    -0.70400
O1430       O  0.99737978  0.65043648  0.27743256    -0.70800
O1431       O  0.98852091  0.69820544  0.33718639    -0.70700
O1432       O  0.52296417  0.68790260  0.37212167    -0.70500
C1433       C  0.58148259  0.61971980  0.32870685     0.81300
C1434       C  0.49467575  0.54354098  0.35887889     0.81800
C1435       C  0.49999857  0.62500131  0.42374817     0.80700
C1436       C  0.91851311  0.63028326  0.32870994     0.81100
C1437       C  0.49999662  0.62500199  0.26381538     0.82200
C1438       C  0.50532208  0.70646262  0.35887978     0.81300
Zn1439     Zn  0.98164338  0.84441807  0.18080984     1.49700
Zn1440     Zn  0.53068637  0.85650959  0.13151889     1.49400
Zn1441     Zn  0.96931593  0.89349465  0.13152047     1.49100
Zn1442     Zn  0.51836048  0.90558690  0.18080912     1.49500
O1443       O  0.00000152  0.87500226  0.15612457    -1.80000
O1444       O  0.98760389  0.80206509  0.16283588    -0.70600
O1445       O  0.52538752  0.87195013  0.08978346    -0.70400
O1446       O  0.92680564  0.88718362  0.14937431    -0.70000
O1447       O  0.52221878  0.81161309  0.12785793    -0.70600
O1448       O  0.93682649  0.85262605  0.18428185    -0.70200
O1449       O  0.97461455  0.87805495  0.08978440    -0.70800
O1450       O  0.51239953  0.94793965  0.16283561    -0.70200
O1451       O  0.57319693  0.86281926  0.14937200    -0.71000
O1452       O  0.97778252  0.93839129  0.12786033    -0.70400
O1453       O  0.56317727  0.89737819  0.18427944    -0.70800
O1454       O  0.50301948  0.90038732  0.22259208    -0.70700
O1455       O  0.99698572  0.84961809  0.22259192    -0.70500
C1456       C  0.00418565  0.79344096  0.14113184     0.81300
C1457       C  0.00000093  0.87500280  0.07617834     0.81800
C1458       C  0.91838695  0.87034370  0.17098913     0.80700
C1459       C  0.99581635  0.95656354  0.14113305     0.81100
C1460       C  0.58161619  0.87965946  0.17098653     0.82200
C1461       C  0.00000299  0.87500270  0.23621008     0.81300
Zn1462     Zn  0.96914894  0.89298089  0.38160564     1.49700
Zn1463     Zn  0.98208531  0.84416303  0.43090698     1.49400
Zn1464     Zn  0.53085372  0.85702297  0.38160626     1.49100
Zn1465     Zn  0.51791582  0.90584270  0.43090684     1.49500
O1466       O  0.00000088  0.87500250  0.40622072    -1.80000
O1467       O  0.92686507  0.88653537  0.39978121    -0.70600
O1468       O  0.98856078  0.80181048  0.41288012    -0.70400
O1469       O  0.52544563  0.87247499  0.33986797    -0.70000
O1470       O  0.93721534  0.85217598  0.43479030    -0.70600
O1471       O  0.97455968  0.87752892  0.33986725    -0.70200
O1472       O  0.52297373  0.81212038  0.37792026    -0.70800
O1473       O  0.56278569  0.89782942  0.43479094    -0.70200
O1474       O  0.99769875  0.84954284  0.47255730    -0.71000
O1475       O  0.57313665  0.86346752  0.39978349    -0.70400
O1476       O  0.50230152  0.90046380  0.47255729    -0.70800
O1477       O  0.51144048  0.94819486  0.41287953    -0.70700
O1478       O  0.97702786  0.93788355  0.37792024    -0.70500
C1479       C  0.91866107  0.86986065  0.42158681     0.81300
C1480       C  0.00534417  0.79355703  0.39117273     0.81800
C1481       C  0.00000301  0.87500212  0.32624943     0.80700
C1482       C  0.58134001  0.88014321  0.42158876     0.81100
C1483       C  0.00000018  0.87500342  0.48617479     0.82200
C1484       C  0.99465700  0.95644758  0.39117233     0.81300
Zn1485     Zn  0.71914796  0.85702286  0.24334847     1.49700
Zn1486     Zn  0.76791770  0.84415974  0.19404777     1.49400
Zn1487     Zn  0.73208488  0.90584026  0.19404785     1.49100
Zn1488     Zn  0.78085211  0.89297737  0.24334944     1.45500
O1489       O  0.75000061  0.87499999  0.21873435    -1.80000
O1490       O  0.72702716  0.81211988  0.24703181    -0.70600
O1491       O  0.75230418  0.84953945  0.15239755    -0.70400
O1492       O  0.68721508  0.89782921  0.19016324    -0.70000
O1493       O  0.76144182  0.80180788  0.21207319    -0.70600
O1494       O  0.67686481  0.86346997  0.22517197    -0.70200
O1495       O  0.74769993  0.90046047  0.15239795    -0.70800
O1496       O  0.77297249  0.93788038  0.24703372    -0.70200
O1497       O  0.81278771  0.85217095  0.19016431    -0.71000
O1498       O  0.73856000  0.94819219  0.21207390    -0.70400
O1499       O  0.82313598  0.88653064  0.22517357    -0.70800
O1500       O  0.77544219  0.87752653  0.28508786    -0.70700
O1501       O  0.72455654  0.87247304  0.28508753    -0.70500
C1502       C  0.74465695  0.79355529  0.23377920     0.81300
C1503       C  0.75000212  0.87499993  0.13878037     0.81800
C1504       C  0.66866108  0.88014481  0.20336615     0.80700
C1505       C  0.75534357  0.95644490  0.23378065     0.81100
C1506       C  0.83134087  0.86985575  0.20336772     0.82200
C1507       C  0.74999916  0.87499949  0.29870586     0.81300
Zn1508     Zn  0.78068434  0.89349182  0.49343536     1.49700
Zn1509     Zn  0.73163919  0.90558451  0.44414604     1.49400
Zn1510     Zn  0.76836112  0.84441608  0.44414562     1.49100
Zn1511     Zn  0.71931608  0.85651010  0.49343641     1.49500
O1512       O  0.75000025  0.87500059  0.46883045    -1.80000
O1513       O  0.77221491  0.93838780  0.49709584    -0.70600
O1514       O  0.74698083  0.90038421  0.40236340    -0.70400
O1515       O  0.81317751  0.85262449  0.44067330    -0.70000
O1516       O  0.73759881  0.94793701  0.46211927    -0.70600
O1517       O  0.82319483  0.88718266  0.47558113    -0.70200
O1518       O  0.75301851  0.84961506  0.40236342    -0.70800
O1519       O  0.72778504  0.81161403  0.49709631    -0.70200
O1520       O  0.68682279  0.89737664  0.44067536    -0.71000
O1521       O  0.76240189  0.80206408  0.46211971    -0.70400
O1522       O  0.67680511  0.86281974  0.47558378    -0.70800
O1523       O  0.72461441  0.87195023  0.03517196    -0.70700
O1524       O  0.77538728  0.87805155  0.03517079    -0.70500
C1525       C  0.75418124  0.95656049  0.48382223     0.81300
C1526       C  0.74999948  0.87499943  0.38874532     0.81800
C1527       C  0.83161516  0.87034317  0.45396588     0.80700
C1528       C  0.74581902  0.79344109  0.48382278     0.81100
C1529       C  0.66838496  0.87965880  0.45396864     0.82200
C1530       C  0.75000110  0.87500072  0.04877699     0.81300
Zn1531     Zn  0.78040977  0.64393847  0.00656865     1.49700
Zn1532     Zn  0.76867410  0.59467425  0.05588027     1.49400
Zn1533     Zn  0.73132650  0.65532845  0.05588149     1.49100
Zn1534     Zn  0.71958974  0.60606349  0.00656981     1.49500
O1535       O  0.75000001  0.62500114  0.03113343    -1.80000
O1536       O  0.82292490  0.63828655  0.02458381    -0.70600
O1537       O  0.75309660  0.59963099  0.09758130    -0.70400
O1538       O  0.73664013  0.69780253  0.03797120    -0.70000
O1539       O  0.81331462  0.60364765  0.05953559    -0.70600
O1540       O  0.77136009  0.68871554  0.00298239    -0.70200
O1541       O  0.74690453  0.65037132  0.09758206    -0.70800
O1542       O  0.67707510  0.61171570  0.02458659    -0.70200
O1543       O  0.76336070  0.55220021  0.03796964    -0.71000
O1544       O  0.68668575  0.64635556  0.05953790    -0.70400
O1545       O  0.72863955  0.56128638  0.00298261    -0.70800
O1546       O  0.72466460  0.62152134  0.46478618    -0.70700
O1547       O  0.77533336  0.62848079  0.46478476    -0.70500
C1548       C  0.83150752  0.62165993  0.04629314     0.81300
C1549       C  0.75000084  0.62500115  0.11119927     0.81800
C1550       C  0.75312282  0.70665784  0.01628520     0.80700
C1551       C  0.66849267  0.62834298  0.04629603     0.81100
C1552       C  0.74687747  0.54334445  0.01628444     0.82200
C1553       C  0.74999868  0.62500122  0.45117437     0.81300
Zn1554     Zn  0.78086124  0.60699621  0.25651826     1.49700
Zn1555     Zn  0.76802559  0.65584860  0.30577636     1.49400
Zn1556     Zn  0.71913750  0.64300474  0.25651752     1.49100
Zn1557     Zn  0.73197068  0.59415356  0.30577605     1.49500
O1558       O  0.74999877  0.62500068  0.28115161    -1.80000
O1559       O  0.82322676  0.61348500  0.27454050    -0.70600
O1560       O  0.76147387  0.69820274  0.28776253    -0.70400
O1561       O  0.72456036  0.62754806  0.21480936    -0.70000
O1562       O  0.81292839  0.64795087  0.30945454    -0.70600
O1563       O  0.77544012  0.62245205  0.21480981    -0.70200
O1564       O  0.72703169  0.68790231  0.25282606    -0.70800
O1565       O  0.68706760  0.60205134  0.30945309    -0.70200
O1566       O  0.75261264  0.65043604  0.34751505    -0.71000
O1567       O  0.67677104  0.63651649  0.27453868    -0.70400
O1568       O  0.74738209  0.59956712  0.34751492    -0.70800
O1569       O  0.73852349  0.55179898  0.28776277    -0.70700
O1570       O  0.77296738  0.56209845  0.25282711    -0.70500
C1571       C  0.83148304  0.63028089  0.29623987     0.81300
C1572       C  0.74467362  0.70646093  0.26606865     0.81800
C1573       C  0.75000054  0.62500015  0.20119905     0.80700
C1574       C  0.66851376  0.61972102  0.29623784     0.81100
C1575       C  0.74999727  0.62500168  0.36113177     0.82200
C1576       C  0.75532490  0.54354015  0.26606954     0.81300
C1577       C  0.74999801  0.62500153  0.41948029    -0.09100
C1578       C  0.74999748  0.62500178  0.39282399    -0.10700
C1579       C  0.75000104  0.62500092  0.14287552    -0.09100
C1580       C  0.75000111  0.62500044  0.16952182    -0.10700
C1581       C  0.75177186  0.98733457  0.49476764    -0.09100
C1582       C  0.74957105  0.51256628  0.00541379    -0.10700
C1583       C  0.74822846  0.76266730  0.49476837    -0.09100
C1584       C  0.75042923  0.73743591  0.00541471    -0.10700
C1585       C  0.74999879  0.87499922  0.33039844    -0.09100
C1586       C  0.74999896  0.87499906  0.35705379    -0.10700
C1587       C  0.75000168  0.87500021  0.08045560    -0.09100
C1588       C  0.75000207  0.87499994  0.10710292    -0.10700
C1589       C  0.75403236  0.98732926  0.24460120    -0.09100
C1590       C  0.75402463  0.51265299  0.25525403    -0.10700
C1591       C  0.74597478  0.73734757  0.25525279    -0.09100
C1592       C  0.74596767  0.76267109  0.24459969    -0.10700
C1593       C  0.61214769  0.87860116  0.43258825    -0.09100
C1594       C  0.63744841  0.87838341  0.44328862    -0.10700
C1595       C  0.88785273  0.87140190  0.43258509    -0.09100
C1596       C  0.86255154  0.87161897  0.44328517    -0.10700
C1597       C  0.00000354  0.87500270  0.26790153    -0.09100
C1598       C  0.00000375  0.87500251  0.29455686    -0.10700
C1599       C  0.00000073  0.87500331  0.04449953    -0.09100
C1600       C  0.00000041  0.87500361  0.01785227    -0.10700
C1601       C  0.63785363  0.87860329  0.19236667    -0.09100
C1602       C  0.61255288  0.87838477  0.18166621    -0.10700
C1603       C  0.86214886  0.87139777  0.19236895    -0.09100
C1604       C  0.88745005  0.87161715  0.18166908    -0.10700
C1605       C  0.63764490  0.62106831  0.30710980    -0.09100
C1606       C  0.61235088  0.62106760  0.31783370    -0.10700
C1607       C  0.86235126  0.62893388  0.30711274    -0.09100
C1608       C  0.88764496  0.62893496  0.31783723    -0.10700
C1609       C  0.49597715  0.51265420  0.36969532    -0.09100
C1610       C  0.99596881  0.98733118  0.38034982    -0.10700
C1611       C  0.50402212  0.73734984  0.36969617    -0.09100
C1612       C  0.00403153  0.76267314  0.38035033    -0.10700
C1613       C  0.49999946  0.62500083  0.48207174    -0.09100
C1614       C  0.49999898  0.62500099  0.45542548    -0.10700
C1615       C  0.49999617  0.62500251  0.20546661    -0.09100
C1616       C  0.49999609  0.62500218  0.23212300    -0.10700
C1617       C  0.61235517  0.62651568  0.06783342    -0.09100
C1618       C  0.63764360  0.62651640  0.05711493    -0.10700
C1619       C  0.88764464  0.62348807  0.06783046    -0.09100
C1620       C  0.86235672  0.62348709  0.05711158    -0.10700
C1621       C  0.99822608  0.98733717  0.13018631    -0.09100
C1622       C  0.00042841  0.51256780  0.11953859    -0.10700
C1623       C  0.00177511  0.76266743  0.13018511    -0.09100
C1624       C  0.99957189  0.73743635  0.11953760    -0.10700
Zn1625     Zn  0.51867076  0.65532836  0.56906617     1.49700
Zn1626     Zn  0.96958811  0.64394107  0.61837735     1.49400
Zn1627     Zn  0.98132878  0.59467431  0.56906629     1.49100
Zn1628     Zn  0.53040953  0.60606393  0.61837841     1.49500
O1629       O  0.49999929  0.62500176  0.59381390    -1.80000
O1630       O  0.51335813  0.69780269  0.58697815    -0.70600
O1631       O  0.92707426  0.63828996  0.60035906    -0.70400
O1632       O  0.99690806  0.59963054  0.52736566    -0.70000
O1633       O  0.97863807  0.68871804  0.62196662    -0.70600
O1634       O  0.50309209  0.65037141  0.52736580    -0.70200
O1635       O  0.93668820  0.60364878  0.56540884    -0.70800
O1636       O  0.52136054  0.56128693  0.62196744    -0.70200
O1637       O  0.97466271  0.62848172  0.66016081    -0.71000
O1638       O  0.98664183  0.55220043  0.58697875    -0.70400
O1639       O  0.52533223  0.62152386  0.66016171    -0.70800
O1640       O  0.57292433  0.61171536  0.60036170    -0.70700
O1641       O  0.56331127  0.64635354  0.56540933    -0.70500
C1642       C  0.49687616  0.70665914  0.60866493     0.81300
C1643       C  0.91849369  0.62166206  0.57864992     0.81800
C1644       C  0.49999998  0.62500093  0.51374813     0.80700
C1645       C  0.50312340  0.54334510  0.60866564     0.81100
C1646       C  0.49999709  0.62500277  0.67377242     0.82200
C1647       C  0.58150554  0.62834171  0.57865188     0.81300
Zn1648     Zn  0.53085909  0.64300454  0.86842921     1.49700
Zn1649     Zn  0.51802666  0.59415303  0.81917057     1.49400
Zn1650     Zn  0.96913738  0.60699847  0.86842989     1.49100
Zn1651     Zn  0.98196869  0.65585071  0.81917221     1.49500
O1652       O  0.49999790  0.62500178  0.84379540    -1.80000
O1653       O  0.57322493  0.63651531  0.85040661    -0.70600
O1654       O  0.51147585  0.55179831  0.83718459    -0.70400
O1655       O  0.97455853  0.62245510  0.91013815    -0.70000
O1656       O  0.56292944  0.60204991  0.81549226    -0.70600
O1657       O  0.52543819  0.62754784  0.91013726    -0.70200
O1658       O  0.97703345  0.56210069  0.87212166    -0.70800
O1659       O  0.93706583  0.64795399  0.81549570    -0.70200
O1660       O  0.50261409  0.59956740  0.77743175    -0.71000
O1661       O  0.92677132  0.61348693  0.85040842    -0.70400
O1662       O  0.99737975  0.65043645  0.77743251    -0.70800
O1663       O  0.98852085  0.69820543  0.83718643    -0.70700
O1664       O  0.52296416  0.68790257  0.87212164    -0.70500
C1665       C  0.58148264  0.61971974  0.82870695     0.81300
C1666       C  0.49467568  0.54354099  0.85887886     0.81800
C1667       C  0.49999848  0.62500135  0.92374825     0.80700
C1668       C  0.91851309  0.63028320  0.82870991     0.81100
C1669       C  0.49999658  0.62500197  0.76381536     0.82200
C1670       C  0.50532199  0.70646258  0.85887985     0.81300
Zn1671     Zn  0.98164336  0.84441805  0.68080985     1.49700
Zn1672     Zn  0.53068634  0.85650966  0.63151892     1.49400
Zn1673     Zn  0.96931598  0.89349465  0.63152049     1.49100
Zn1674     Zn  0.51836052  0.90558697  0.68080916     1.49500
O1675       O  0.00000154  0.87500234  0.65612468    -1.80000
O1676       O  0.98760383  0.80206517  0.66283581    -0.70600
O1677       O  0.52538754  0.87195016  0.58978356    -0.70400
O1678       O  0.92680574  0.88718358  0.64937434    -0.70000
O1679       O  0.52221878  0.81161320  0.62785797    -0.70600
O1680       O  0.93682654  0.85262599  0.68428189    -0.70200
O1681       O  0.97461457  0.87805489  0.58978444    -0.70800
O1682       O  0.51239951  0.94793971  0.66283559    -0.70200
O1683       O  0.57319687  0.86281938  0.64937200    -0.71000
O1684       O  0.97778249  0.93839126  0.62786032    -0.70400
O1685       O  0.56317729  0.89737832  0.68427948    -0.70800
O1686       O  0.50301954  0.90038743  0.72259210    -0.70700
O1687       O  0.99698580  0.84961818  0.72259185    -0.70500
C1688       C  0.00418568  0.79344101  0.64113176     0.81300
C1689       C  0.00000098  0.87500275  0.57617829     0.81800
C1690       C  0.91838700  0.87034367  0.67098916     0.80700
C1691       C  0.99581635  0.95656359  0.64113293     0.81100
C1692       C  0.58161615  0.87965962  0.67098656     0.82200
C1693       C  0.00000298  0.87500286  0.73621006     0.81300
Zn1694     Zn  0.96914891  0.89298087  0.88160558     1.49700
Zn1695     Zn  0.98208534  0.84416301  0.93090692     1.49400
Zn1696     Zn  0.53085377  0.85702293  0.88160628     1.49100
Zn1697     Zn  0.51791581  0.90584269  0.93090683     1.49500
O1698       O  0.00000092  0.87500247  0.90622061    -1.80000
O1699       O  0.92686500  0.88653539  0.89978122    -0.70600
O1700       O  0.98856077  0.80181045  0.91288007    -0.70400
O1701       O  0.52544565  0.87247492  0.83986798    -0.70000
O1702       O  0.93721532  0.85217596  0.93479027    -0.70600
O1703       O  0.97455969  0.87752889  0.83986733    -0.70200
O1704       O  0.52297385  0.81212031  0.87792031    -0.70800
O1705       O  0.56278566  0.89782944  0.93479096    -0.70200
O1706       O  0.99769874  0.84954289  0.97255724    -0.71000
O1707       O  0.57313672  0.86346750  0.89978359    -0.70400
O1708       O  0.50230140  0.90046383  0.97255731    -0.70800
O1709       O  0.51144038  0.94819478  0.91287950    -0.70700
O1710       O  0.97702783  0.93788350  0.87792022    -0.70500
C1711       C  0.91866109  0.86986056  0.92158673     0.81300
C1712       C  0.00534421  0.79355695  0.89117275     0.81800
C1713       C  0.00000303  0.87500207  0.82624946     0.80700
C1714       C  0.58134005  0.88014328  0.92158881     0.81100
C1715       C  0.00000016  0.87500348  0.98617464     0.82200
C1716       C  0.99465696  0.95644746  0.89117237     0.81300
Zn1717     Zn  0.71914805  0.85702295  0.74334845     1.49700
Zn1718     Zn  0.76791773  0.84415974  0.69404772     1.49400
Zn1719     Zn  0.73208492  0.90584033  0.69404783     1.49100
Zn1720     Zn  0.78085211  0.89297738  0.74334938     1.45500
O1721       O  0.75000071  0.87500006  0.71873417    -1.80000
O1722       O  0.72702733  0.81211999  0.74703192    -0.70600
O1723       O  0.75230425  0.84953944  0.65239750    -0.70400
O1724       O  0.68721516  0.89782936  0.69016325    -0.70000
O1725       O  0.76144183  0.80180780  0.71207318    -0.70600
O1726       O  0.67686491  0.86347002  0.72517183    -0.70200
O1727       O  0.74769999  0.90046047  0.65239791    -0.70800
O1728       O  0.77297249  0.93788031  0.74703364    -0.70200
O1729       O  0.81278768  0.85217098  0.69016432    -0.71000
O1730       O  0.73856003  0.94819228  0.71207390    -0.70400
O1731       O  0.82313597  0.88653061  0.72517364    -0.70800
O1732       O  0.77544213  0.87752660  0.78508779    -0.70700
O1733       O  0.72455647  0.87247324  0.78508756    -0.70500
C1734       C  0.74465698  0.79355537  0.73377923     0.81300
C1735       C  0.75000218  0.87499994  0.63878031     0.81800
C1736       C  0.66866122  0.88014488  0.70336600     0.80700
C1737       C  0.75534363  0.95644486  0.73378062     0.81100
C1738       C  0.83134088  0.86985577  0.70336776     0.82200
C1739       C  0.74999910  0.87499973  0.79870590     0.81300
Zn1740     Zn  0.78068431  0.89349180  0.99343536     1.49700
Zn1741     Zn  0.73163915  0.90558455  0.94414607     1.49400
Zn1742     Zn  0.76836111  0.84441610  0.94414565     1.49100
Zn1743     Zn  0.71931603  0.85651005  0.99343640     1.49500
O1744       O  0.75000005  0.87500063  0.96883054    -1.80000
O1745       O  0.77221492  0.93838780  0.99709587    -0.70600
O1746       O  0.74698076  0.90038430  0.90236338    -0.70400
O1747       O  0.81317758  0.85262448  0.94067340    -0.70000
O1748       O  0.73759879  0.94793708  0.96211939    -0.70600
O1749       O  0.82319483  0.88718266  0.97558114    -0.70200
O1750       O  0.75301863  0.84961515  0.90236340    -0.70800
O1751       O  0.72778505  0.81161401  0.99709623    -0.70200
O1752       O  0.68682275  0.89737663  0.94067541    -0.71000
O1753       O  0.76240187  0.80206403  0.96211961    -0.70400
O1754       O  0.67680512  0.86281970  0.97558382    -0.70800
O1755       O  0.72461448  0.87195023  0.53517195    -0.70700
O1756       O  0.77538733  0.87805154  0.53517072    -0.70500
C1757       C  0.75418132  0.95656052  0.98382229     0.81300
C1758       C  0.74999944  0.87499956  0.88874523     0.81800
C1759       C  0.83161511  0.87034319  0.95396597     0.80700
C1760       C  0.74581901  0.79344105  0.98382264     0.81100
C1761       C  0.66838491  0.87965877  0.95396871     0.82200
C1762       C  0.75000115  0.87500069  0.54877697     0.81300
Zn1763     Zn  0.78040976  0.64393846  0.50656860     1.49700
Zn1764     Zn  0.76867411  0.59467423  0.55588030     1.49400
Zn1765     Zn  0.73132656  0.65532844  0.55588150     1.49100
Zn1766     Zn  0.71958981  0.60606355  0.50656985     1.49500
O1767       O  0.75000003  0.62500118  0.53113343    -1.80000
O1768       O  0.82292489  0.63828651  0.52458384    -0.70600
O1769       O  0.75309658  0.59963095  0.59758133    -0.70400
O1770       O  0.73664013  0.69780246  0.53797119    -0.70000
O1771       O  0.81331460  0.60364770  0.55953569    -0.70600
O1772       O  0.77136005  0.68871554  0.50298234    -0.70200
O1773       O  0.74690461  0.65037128  0.59758209    -0.70800
O1774       O  0.67707518  0.61171571  0.52458665    -0.70200
O1775       O  0.76336073  0.55220017  0.53796970    -0.71000
O1776       O  0.68668585  0.64635552  0.55953794    -0.70400
O1777       O  0.72863966  0.56128651  0.50298266    -0.70800
O1778       O  0.72466462  0.62152125  0.96478616    -0.70700
O1779       O  0.77533339  0.62848081  0.96478483    -0.70500
C1780       C  0.83150747  0.62165989  0.54629321     0.81300
C1781       C  0.75000072  0.62500104  0.61119936     0.81800
C1782       C  0.75312276  0.70665785  0.51628524     0.80700
C1783       C  0.66849283  0.62834298  0.54629604     0.81100
C1784       C  0.74687751  0.54334448  0.51628447     0.82200
C1785       C  0.74999877  0.62500119  0.95117440     0.81300
Zn1786     Zn  0.78086132  0.60699622  0.75651823     1.49700
Zn1787     Zn  0.76802571  0.65584860  0.80577639     1.49400
Zn1788     Zn  0.71913758  0.64300474  0.75651756     1.49100
Zn1789     Zn  0.73197076  0.59415366  0.80577599     1.49500
O1790       O  0.74999893  0.62500078  0.78115155    -1.80000
O1791       O  0.82322690  0.61348502  0.77454049    -0.70600
O1792       O  0.76147397  0.69820268  0.78776252    -0.70400
O1793       O  0.72456040  0.62754803  0.71480943    -0.70000
O1794       O  0.81292847  0.64795086  0.80945459    -0.70600
O1795       O  0.77544016  0.62245201  0.71480981    -0.70200
O1796       O  0.72703177  0.68790228  0.75282609    -0.70800
O1797       O  0.68706778  0.60205143  0.80945302    -0.70200
O1798       O  0.75261267  0.65043606  0.84751513    -0.71000
O1799       O  0.67677115  0.63651654  0.77453866    -0.70400
O1800       O  0.74738213  0.59956714  0.84751485    -0.70800
O1801       O  0.73852358  0.55179913  0.78776274    -0.70700
O1802       O  0.77296757  0.56209846  0.75282710    -0.70500
C1803       C  0.83148315  0.63028092  0.79623987     0.81300
C1804       C  0.74467366  0.70646091  0.76606872     0.81800
C1805       C  0.75000052  0.62500011  0.70119905     0.80700
C1806       C  0.66851378  0.61972102  0.79623779     0.81100
C1807       C  0.74999739  0.62500167  0.86113175     0.82200
C1808       C  0.75532509  0.54354019  0.76606952     0.81300
C1809       C  0.74999802  0.62500154  0.91948031    -0.09100
C1810       C  0.74999753  0.62500173  0.89282402    -0.10700
C1811       C  0.75000105  0.62500088  0.64287551    -0.09100
C1812       C  0.75000115  0.62500042  0.66952195    -0.10700
C1813       C  0.75177191  0.98733462  0.99476768    -0.09100
C1814       C  0.74957107  0.51256632  0.50541378    -0.10700
C1815       C  0.74822844  0.76266731  0.99476839    -0.09100
C1816       C  0.75042921  0.73743589  0.50541478    -0.10700
C1817       C  0.74999874  0.87499929  0.83039836    -0.09100
C1818       C  0.74999894  0.87499920  0.85705380    -0.10700
C1819       C  0.75000178  0.87500021  0.58045555    -0.09100
C1820       C  0.75000219  0.87499998  0.60710287    -0.10700
C1821       C  0.75403244  0.98732927  0.74460125    -0.09100
C1822       C  0.75402461  0.51265319  0.75525408    -0.10700
C1823       C  0.74597492  0.73734759  0.75525278    -0.09100
C1824       C  0.74596770  0.76267109  0.74459976    -0.10700
C1825       C  0.61214767  0.87860121  0.93258827    -0.09100
C1826       C  0.63744851  0.87838335  0.94328861    -0.10700
C1827       C  0.88785266  0.87140189  0.93258508    -0.09100
C1828       C  0.86255168  0.87161899  0.94328517    -0.10700
C1829       C  0.00000369  0.87500279  0.76790150    -0.09100
C1830       C  0.00000372  0.87500249  0.79455693    -0.10700
C1831       C  0.00000077  0.87500326  0.54449971    -0.09100
C1832       C  0.00000035  0.87500361  0.51785222    -0.10700
C1833       C  0.63785365  0.87860330  0.69236650    -0.09100
C1834       C  0.61255283  0.87838483  0.68166629    -0.10700
C1835       C  0.86214885  0.87139778  0.69236899    -0.09100
C1836       C  0.88745014  0.87161716  0.68166908    -0.10700
C1837       C  0.63764502  0.62106837  0.80710975    -0.09100
C1838       C  0.61235084  0.62106760  0.81783376    -0.10700
C1839       C  0.86235128  0.62893391  0.80711273    -0.09100
C1840       C  0.88764509  0.62893490  0.81783710    -0.10700
C1841       C  0.49597706  0.51265417  0.86969532    -0.09100
C1842       C  0.99596887  0.98733118  0.88034977    -0.10700
C1843       C  0.50402217  0.73734980  0.86969615    -0.09100
C1844       C  0.00403156  0.76267311  0.88035035    -0.10700
C1845       C  0.49999942  0.62500080  0.98207180    -0.09100
C1846       C  0.49999889  0.62500098  0.95542549    -0.10700
C1847       C  0.49999621  0.62500250  0.70546665    -0.09100
C1848       C  0.49999616  0.62500218  0.73212295    -0.10700
C1849       C  0.61235522  0.62651563  0.56783345    -0.09100
C1850       C  0.63764348  0.62651644  0.55711501    -0.10700
C1851       C  0.88764463  0.62348819  0.56783051    -0.09100
C1852       C  0.86235672  0.62348711  0.55711169    -0.10700
C1853       C  0.99822603  0.98733710  0.63018624    -0.09100
C1854       C  0.00042841  0.51256789  0.61953856    -0.10700
C1855       C  0.00177515  0.76266751  0.63018513    -0.09100
C1856       C  0.99957183  0.73743635  0.61953756    -0.10700
loop_ 
_geom_bond_atom_site_label_1 
_geom_bond_atom_site_label_2 
_geom_bond_distance 
_geom_bond_site_symmetry_2 
_ccdc_geom_bond_type 
Zn1           O5   1.918   1_455  S
Zn1           O6   2.040       .  S
Zn1          O10   2.013       .  S
Zn1          O17   2.000       .  S
Zn2         O933   1.920       .  S
Zn2           O7   2.046       .  S
Zn2           O9   2.006       .  S
Zn2          O13   2.016       .  S
Zn3         O933   1.918       .  S
Zn3           O8   2.013       .  S
Zn3          O11   2.000       .  S
Zn3          O14   2.040       .  S
Zn4           O5   1.920   1_455  S
Zn4          O12   2.006       .  S
Zn4          O15   2.016       .  S
Zn4          O16   2.046       .  S
O5         Zn930   1.920       .  S
O5         Zn931   1.918       .  S
O6           C18   1.276   1_455  A
O7           C19   1.277       .  A
O8          C948   1.276       .  A
O9          C946   1.271       .  A
O10          C20   1.276   1_455  A
O11          C19   1.270       .  A
O12          C21   1.271       .  A
O13         C950   1.277       .  A
O14         C949   1.276       .  A
O15          C22   1.277   1_455  A
O16          C23   1.277       .  A
O17          C23   1.270       .  A
C18         O937   1.271       .  A
C18        C1160   1.438       .  S
C19         C227   1.438       .  S
C20         O936   1.276       .  A
C20         C453   1.430   1_554  S
C21         O942   1.276   1_455  A
C21        C1158   1.438       .  S
C22         O941   1.277       .  A
C22         C223   1.430       .  S
C23         C225   1.438       .  S
Zn24         O28   1.919   1_455  S
Zn24         O29   2.045       .  S
Zn24         O33   2.014       .  S
Zn24         O40   2.002       .  S
Zn25         O28   1.918   1_455  S
Zn25         O30   2.044       .  S
Zn25         O32   2.003       .  S
Zn25         O36   2.015       .  S
Zn26        O956   1.919       .  S
Zn26         O31   2.014       .  S
Zn26         O34   2.002       .  S
Zn26         O37   2.045       .  S
Zn27        O956   1.918       .  S
Zn27         O35   2.003       .  S
Zn27         O38   2.015       .  S
Zn27         O39   2.044       .  S
O28        Zn954   1.919       .  S
O28        Zn955   1.918       .  S
O29          C41   1.277       .  A
O30          C42   1.277   1_455  A
O31         C971   1.277       .  A
O32          C41   1.270       .  A
O33          C43   1.277   1_455  A
O34         C970   1.270       .  A
O35          C44   1.270       .  A
O36          C45   1.277   1_455  A
O37          C44   1.277       .  A
O38         C973   1.277       .  A
O39         C974   1.277       .  A
O40          C46   1.270       .  A
C41         C214   1.439       .  S
C42         O962   1.270       .  A
C42         C217   1.438       .  S
C43         O959   1.277       .  A
C43         C222   1.430       .  S
C44         C216   1.439       .  S
C45         O966   1.277       .  A
C45         C224   1.430       .  S
C46         O967   1.277   1_455  A
C46         C219   1.438       .  S
Zn47         O51   1.918       .  S
Zn47         O52   2.040       .  S
Zn47         O56   2.000       .  S
Zn47         O63   2.015       .  S
Zn48        O979   1.921       .  S
Zn48         O53   2.014       .  S
Zn48         O55   2.006       .  S
Zn48         O59   2.046       .  S
Zn49         O51   1.921       .  S
Zn49         O54   2.046       .  S
Zn49         O57   2.014       .  S
Zn49         O60   2.006       .  S
Zn50        O979   1.918       .  S
Zn50         O58   2.040       .  S
Zn50         O61   2.000       .  S
Zn50         O62   2.015       .  S
O51        Zn976   1.921       .  S
O51        Zn978   1.918       .  S
O52          C64   1.276       .  A
O53         C993   1.277       .  A
O54          C66   1.277       .  A
O55         C992   1.271       .  A
O56          C66   1.270       .  A
O57          C65   1.277       .  A
O58         C995   1.276   1_455  A
O59          C68   1.277       .  A
O60          C67   1.271       .  A
O61          C68   1.270       .  A
O62         C997   1.276       .  A
O63          C69   1.276       .  A
C64         O983   1.271       .  A
C64         C231   1.438       .  S
C65         O981   1.277       .  A
C65         C207   1.430       .  S
C66         C212   1.438       .  S
C67         O986   1.276       .  A
C67         C229   1.438       .  S
C68         C210   1.438       .  S
C69         O990   1.276       .  A
C69         C205   1.430       .  S
Zn70         O74   1.918       .  S
Zn70         O75   2.044       .  S
Zn70         O79   2.015       .  S
Zn70         O86   2.002       .  S
Zn71         O74   1.918       .  S
Zn71         O76   2.044       .  S
Zn71         O78   2.003       .  S
Zn71         O82   2.014       .  S
Zn72       O1002   1.918       .  S
Zn72         O77   2.015       .  S
Zn72         O80   2.002       .  S
Zn72         O83   2.044       .  S
Zn73       O1002   1.918       .  S
Zn73         O81   2.003       .  S
Zn73         O84   2.014       .  S
Zn73         O85   2.044       .  S
O74       Zn1000   1.918       .  S
O74       Zn1001   1.918       .  S
O75          C87   1.277       .  A
O76          C88   1.277       .  A
O77        C1017   1.277       .  A
O78          C87   1.270       .  A
O79          C89   1.277       .  A
O80        C1016   1.270       .  A
O81          C90   1.270       .  A
O82          C91   1.277       .  A
O83          C90   1.277       .  A
O84        C1019   1.277       .  A
O85        C1020   1.277   1_455  A
O86          C92   1.270       .  A
C87         C203   1.439       .  S
C88        O1008   1.270       .  A
C88         C220   1.438       .  S
C89        O1005   1.277       .  A
C89         C206   1.430       .  S
C90         C201   1.439       .  S
C91        O1012   1.277       .  A
C91         C440   1.430       .  S
C92        O1013   1.277       .  A
C92         C218   1.438       .  S
Zn93         O97   1.918       .  S
Zn93         O98   2.002       .  S
Zn93        O102   2.044       .  S
Zn93        O109   2.015       .  S
Zn94         O97   1.918       .  S
Zn94         O99   2.014       .  S
Zn94        O101   2.044       .  S
Zn94        O105   2.003       .  S
Zn95         O97   1.918       .  S
Zn95        O100   2.003       .  S
Zn95        O103   2.014       .  S
Zn95        O106   2.044       .  S
Zn96         O97   1.917       .  S
Zn96        O104   2.002       .  S
Zn96        O107   2.044       .  S
Zn96        O108   2.015       .  S
O98         C110   1.270       .  A
O99         C111   1.277       .  A
O100        C112   1.270       .  A
O101        C110   1.277       .  A
O102        C112   1.277       .  A
O103        C111   1.277       .  A
O104        C113   1.270       .  A
O105        C114   1.270       .  A
O106        C113   1.277       .  A
O107        C114   1.277       .  A
O108        C115   1.277       .  A
O109        C115   1.277       .  A
C110        C200   1.438       .  S
C111        C196   1.430       .  S
C112        C209   1.439       .  S
C113        C197   1.438       .  S
C114        C211   1.439       .  S
C115        C193   1.430       .  S
Zn116       O120   1.921       .  S
Zn116       O121   2.006       .  S
Zn116       O125   2.046       .  S
Zn116       O364   2.014       .  S
Zn117       O120   1.918       .  S
Zn117       O122   2.015       .  S
Zn117       O124   2.040       .  S
Zn117       O128   2.000       .  S
Zn118       O120   1.918       .  S
Zn118       O123   2.000       .  S
Zn118       O126   2.015       .  S
Zn118       O129   2.040       .  S
Zn119       O120   1.921       .  S
Zn119       O127   2.006       .  S
Zn119       O130   2.046       .  S
Zn119       O363   2.014       .  S
O121        C133   1.271       .  A
O122        C134   1.276       .  A
O123        C135   1.270       .  A
O124        C133   1.276       .  A
O125        C135   1.277       .  A
O126        C134   1.276       .  A
O127        C136   1.271       .  A
O128        C137   1.270       .  A
O129        C136   1.276       .  A
O130        C137   1.277       .  A
O131       Zn351   2.014   1_554  S
O131        C138   1.277       .  A
O132       Zn348   2.014   1_554  S
O132        C138   1.277       .  A
C133        C189   1.438       .  S
C134        C194   1.430       .  S
C135        C204   1.438       .  S
C136        C191   1.438       .  S
C137        C202   1.438       .  S
C138        C195   1.430       .  S
Zn139       O143   1.920       .  S
Zn139       O144   2.046       .  S
Zn139       O148   2.006       .  S
Zn139       O387   2.016   1_554  S
Zn140       O143   1.918       .  S
Zn140       O145   2.013       .  S
Zn140       O147   2.000       .  S
Zn140       O151   2.040       .  S
Zn141       O143   1.918       .  S
Zn141       O146   2.040       .  S
Zn141       O149   2.013       .  S
Zn141       O152   2.000       .  S
Zn142       O143   1.920       .  S
Zn142       O150   2.046       .  S
Zn142       O153   2.006       .  S
Zn142       O386   2.016   1_554  S
O144        C156   1.277       .  A
O145        C157   1.276       .  A
O146        C158   1.276       .  A
O147        C156   1.270       .  A
O148        C158   1.271       .  A
O149        C157   1.276       .  A
O150        C159   1.277       .  A
O151        C160   1.276       .  A
O152        C159   1.270       .  A
O153        C160   1.271       .  A
O154       Zn374   2.016       .  S
O154        C161   1.277       .  A
O155       Zn371   2.016       .  S
O155        C161   1.277       .  A
C156        C228   1.438       .  S
C157        C187   1.430       .  S
C158        C192   1.438       .  S
C159        C226   1.438       .  S
C160        C190   1.438       .  S
C161        C185   1.430       .  S
Zn162       O166   1.919       .  S
Zn162       O167   2.045       .  S
Zn162       O171   2.014       .  S
Zn162       O178   2.002       .  S
Zn163       O166   1.918       .  S
Zn163       O168   2.044       .  S
Zn163       O170   2.003       .  S
Zn163       O174   2.015       .  S
Zn164       O166   1.919       .  S
Zn164       O169   2.014       .  S
Zn164       O172   2.002       .  S
Zn164       O175   2.045       .  S
Zn165       O166   1.918       .  S
Zn165       O173   2.003       .  S
Zn165       O176   2.015       .  S
Zn165       O177   2.044       .  S
O167        C179   1.277       .  A
O168        C180   1.277       .  A
O169        C181   1.277       .  A
O170        C179   1.270       .  A
O171        C181   1.277       .  A
O172        C180   1.270       .  A
O173        C182   1.270       .  A
O174        C183   1.277       .  A
O175        C182   1.277       .  A
O176        C183   1.277       .  A
O177        C184   1.277       .  A
O178        C184   1.270       .  A
C179        C215   1.439       .  S
C180        C199   1.438       .  S
C181        C188   1.430       .  S
C182        C213   1.439       .  S
C183        C186   1.430       .  S
C184        C198   1.438       .  S
C185        C186   1.203       .  T
C187        C188   1.203       .  T
C189        C886   1.208       .  T
C190        C885   1.208   1_544  T
C191        C424   1.208       .  T
C192        C423   1.208   1_554  T
C193        C194   1.203       .  T
C195        C196   1.203       .  T
C197        C662   1.208       .  T
C198        C661   1.208   1_545  T
C199        C200   1.208       .  T
C201        C202   1.208       .  T
C203        C204   1.208       .  T
C205        C206   1.203       .  T
C207        C208   1.203       .  T
C208        C323   1.430   1_554  S
C209        C210   1.208       .  T
C211        C212   1.208       .  T
C213        C214   1.208       .  T
C215        C216   1.208       .  T
C217       C1610   1.208   1_545  T
C218       C1609   1.208       .  T
C219       C1148   1.208       .  T
C220       C1147   1.208       .  T
C221        C252   1.430       .  S
C221        C222   1.203       .  T
C223        C224   1.203       .  T
C225        C226   1.208       .  T
C227        C228   1.208       .  T
C229        C694   1.208       .  T
C230        C949   1.438       .  S
C230        C693   1.208   1_545  T
C231        C232   1.208       .  T
C232        C946   1.438       .  S
Zn233       O237   1.918   1_455  S
Zn233       O238   2.040       .  S
Zn233       O242   2.013       .  S
Zn233       O249   2.000       .  S
Zn234      O1165   1.920       .  S
Zn234       O239   2.046       .  S
Zn234       O241   2.006       .  S
Zn234       O245   2.016       .  S
Zn235      O1165   1.918       .  S
Zn235       O240   2.013       .  S
Zn235       O243   2.000       .  S
Zn235       O246   2.040       .  S
Zn236       O237   1.920   1_455  S
Zn236       O244   2.006       .  S
Zn236       O247   2.016       .  S
Zn236       O248   2.046       .  S
O237      Zn1162   1.920       .  S
O237      Zn1163   1.918       .  S
O238        C250   1.276   1_455  A
O239        C251   1.277       .  A
O240       C1180   1.276       .  A
O241       C1178   1.271       .  A
O242        C252   1.276   1_455  A
O243        C251   1.270       .  A
O244        C253   1.271       .  A
O245       C1182   1.277       .  A
O246       C1181   1.276       .  A
O247        C254   1.277   1_455  A
O248        C255   1.277       .  A
O249        C255   1.270       .  A
C250       O1169   1.271       .  A
C250       C1392   1.438       .  S
C251        C459   1.438       .  S
C252       O1168   1.276       .  A
C253       O1174   1.276   1_455  A
C253       C1390   1.438       .  S
C254       O1173   1.277       .  A
C254        C455   1.430       .  S
C255        C457   1.438       .  S
Zn256       O260   1.919   1_455  S
Zn256       O261   2.045       .  S
Zn256       O265   2.014       .  S
Zn256       O272   2.002       .  S
Zn257       O260   1.918   1_455  S
Zn257       O262   2.044       .  S
Zn257       O264   2.003       .  S
Zn257       O268   2.015       .  S
Zn258      O1188   1.919       .  S
Zn258       O263   2.014       .  S
Zn258       O266   2.002       .  S
Zn258       O269   2.045       .  S
Zn259      O1188   1.918       .  S
Zn259       O267   2.003       .  S
Zn259       O270   2.015       .  S
Zn259       O271   2.044       .  S
O260      Zn1186   1.919       .  S
O260      Zn1187   1.918       .  S
O261        C273   1.277       .  A
O262        C274   1.277   1_455  A
O263       C1203   1.277       .  A
O264        C273   1.270       .  A
O265        C275   1.277   1_455  A
O266       C1202   1.270       .  A
O267        C276   1.270       .  A
O268        C277   1.277   1_455  A
O269        C276   1.277       .  A
O270       C1205   1.277       .  A
O271       C1206   1.277       .  A
O272        C278   1.270       .  A
C273        C446   1.439       .  S
C274       O1194   1.270       .  A
C274        C449   1.438       .  S
C275       O1191   1.277       .  A
C275        C454   1.430       .  S
C276        C448   1.439       .  S
C277       O1198   1.277       .  A
C277        C456   1.430       .  S
C278       O1199   1.277   1_455  A
C278        C451   1.438       .  S
Zn279       O283   1.918       .  S
Zn279       O284   2.040       .  S
Zn279       O288   2.000       .  S
Zn279       O295   2.015       .  S
Zn280      O1211   1.921       .  S
Zn280       O285   2.014       .  S
Zn280       O287   2.006       .  S
Zn280       O291   2.046       .  S
Zn281       O283   1.921       .  S
Zn281       O286   2.046       .  S
Zn281       O289   2.014       .  S
Zn281       O292   2.006       .  S
Zn282      O1211   1.918       .  S
Zn282       O290   2.040       .  S
Zn282       O293   2.000       .  S
Zn282       O294   2.015       .  S
O283      Zn1208   1.921       .  S
O283      Zn1210   1.918       .  S
O284        C296   1.276       .  A
O285       C1225   1.277       .  A
O286        C298   1.277       .  A
O287       C1224   1.271       .  A
O288        C298   1.270       .  A
O289        C297   1.277       .  A
O290       C1227   1.276   1_455  A
O291        C300   1.277       .  A
O292        C299   1.271       .  A
O293        C300   1.270       .  A
O294       C1229   1.276       .  A
O295        C301   1.276       .  A
C296       O1215   1.271       .  A
C296        C463   1.438       .  S
C297       O1213   1.277       .  A
C297        C439   1.430       .  S
C298        C444   1.438       .  S
C299       O1218   1.276       .  A
C299        C461   1.438       .  S
C300        C442   1.438       .  S
C301       O1222   1.276       .  A
C301        C437   1.430       .  S
Zn302       O306   1.917       .  S
Zn302       O307   2.044       .  S
Zn302       O311   2.015       .  S
Zn302       O318   2.002       .  S
Zn303       O306   1.918       .  S
Zn303       O308   2.044       .  S
Zn303       O310   2.003       .  S
Zn303       O314   2.014       .  S
Zn304      O1234   1.918       .  S
Zn304       O309   2.015       .  S
Zn304       O312   2.002       .  S
Zn304       O315   2.044       .  S
Zn305      O1234   1.918       .  S
Zn305       O313   2.003       .  S
Zn305       O316   2.014       .  S
Zn305       O317   2.044       .  S
O306      Zn1232   1.918       .  S
O306      Zn1233   1.918       .  S
O307        C319   1.277       .  A
O308        C320   1.277       .  A
O309       C1249   1.277       .  A
O310        C319   1.270       .  A
O311        C321   1.277       .  A
O312       C1248   1.270       .  A
O313        C322   1.270       .  A
O314        C323   1.277       .  A
O315        C322   1.277       .  A
O316       C1251   1.277       .  A
O317       C1252   1.277   1_455  A
O318        C324   1.270       .  A
C319        C435   1.439       .  S
C320       O1240   1.270       .  A
C320        C452   1.438       .  S
C321       O1237   1.277       .  A
C321        C438   1.430       .  S
C322        C433   1.439       .  S
C323       O1244   1.277       .  A
C324       O1245   1.277       .  A
C324        C450   1.438       .  S
Zn325       O329   1.918       .  S
Zn325       O330   2.002       .  S
Zn325       O334   2.044       .  S
Zn325       O341   2.015       .  S
Zn326       O329   1.918       .  S
Zn326       O331   2.014       .  S
Zn326       O333   2.044       .  S
Zn326       O337   2.003       .  S
Zn327       O329   1.918       .  S
Zn327       O332   2.003       .  S
Zn327       O335   2.014       .  S
Zn327       O338   2.044       .  S
Zn328       O329   1.918       .  S
Zn328       O336   2.002       .  S
Zn328       O339   2.044       .  S
Zn328       O340   2.015       .  S
O330        C342   1.270       .  A
O331        C343   1.277       .  A
O332        C344   1.270       .  A
O333        C342   1.277       .  A
O334        C344   1.277       .  A
O335        C343   1.277       .  A
O336        C345   1.270       .  A
O337        C346   1.270       .  A
O338        C345   1.277       .  A
O339        C346   1.277       .  A
O340        C347   1.277       .  A
O341        C347   1.277       .  A
C342        C432   1.438       .  S
C343        C428   1.430       .  S
C344        C441   1.439       .  S
C345        C429   1.438       .  S
C346        C443   1.439       .  S
C347        C425   1.430       .  S
Zn348       O352   1.921       .  S
Zn348       O353   2.006       .  S
Zn348       O357   2.046       .  S
Zn349       O352   1.918       .  S
Zn349       O354   2.015       .  S
Zn349       O356   2.040       .  S
Zn349       O360   2.000       .  S
Zn350       O352   1.918       .  S
Zn350       O355   2.000       .  S
Zn350       O358   2.015       .  S
Zn350       O361   2.040       .  S
Zn351       O352   1.921       .  S
Zn351       O359   2.006       .  S
Zn351       O362   2.046       .  S
O353        C365   1.271       .  A
O354        C366   1.276       .  A
O355        C367   1.270       .  A
O356        C365   1.276       .  A
O357        C367   1.277       .  A
O358        C366   1.276       .  A
O359        C368   1.271       .  A
O360        C369   1.270       .  A
O361        C368   1.276       .  A
O362        C369   1.277       .  A
O363        C370   1.277       .  A
O364        C370   1.277       .  A
C365        C421   1.438       .  S
C366        C426   1.430       .  S
C367        C436   1.438       .  S
C368        C423   1.438       .  S
C369        C434   1.438       .  S
C370        C427   1.430       .  S
Zn371       O375   1.920       .  S
Zn371       O376   2.046       .  S
Zn371       O380   2.006       .  S
Zn372       O375   1.918       .  S
Zn372       O377   2.013       .  S
Zn372       O379   2.000       .  S
Zn372       O383   2.040       .  S
Zn373       O375   1.918       .  S
Zn373       O378   2.040       .  S
Zn373       O381   2.013       .  S
Zn373       O384   2.000       .  S
Zn374       O375   1.920       .  S
Zn374       O382   2.046       .  S
Zn374       O385   2.006       .  S
O376        C388   1.277       .  A
O377        C389   1.276       .  A
O378        C390   1.276       .  A
O379        C388   1.270       .  A
O380        C390   1.271       .  A
O381        C389   1.276       .  A
O382        C391   1.277       .  A
O383        C392   1.276       .  A
O384        C391   1.270       .  A
O385        C392   1.271       .  A
O386        C393   1.277       .  A
O387        C393   1.277       .  A
C388        C460   1.438       .  S
C389        C419   1.430       .  S
C390        C424   1.438       .  S
C391        C458   1.438       .  S
C392        C422   1.438       .  S
C393        C417   1.430       .  S
Zn394       O398   1.919       .  S
Zn394       O399   2.045       .  S
Zn394       O403   2.014       .  S
Zn394       O410   2.002       .  S
Zn395       O398   1.918       .  S
Zn395       O400   2.044       .  S
Zn395       O402   2.003       .  S
Zn395       O406   2.015       .  S
Zn396       O398   1.919       .  S
Zn396       O401   2.014       .  S
Zn396       O404   2.002       .  S
Zn396       O407   2.045       .  S
Zn397       O398   1.918       .  S
Zn397       O405   2.003       .  S
Zn397       O408   2.015       .  S
Zn397       O409   2.044       .  S
O399        C411   1.277       .  A
O400        C412   1.277       .  A
O401        C413   1.277       .  A
O402        C411   1.270       .  A
O403        C413   1.277       .  A
O404        C412   1.270       .  A
O405        C414   1.270       .  A
O406        C415   1.277       .  A
O407        C414   1.277       .  A
O408        C415   1.277       .  A
O409        C416   1.277       .  A
O410        C416   1.270       .  A
C411        C447   1.439       .  S
C412        C431   1.438       .  S
C413        C420   1.430       .  S
C414        C445   1.439       .  S
C415        C418   1.430       .  S
C416        C430   1.438       .  S
C417        C418   1.203       .  T
C419        C420   1.203       .  T
C421        C654   1.208   1_556  T
C422        C653   1.208   1_545  T
C425        C426   1.203       .  T
C427        C428   1.203       .  T
C429        C894   1.208       .  T
C430        C893   1.208   1_545  T
C431        C432   1.208       .  T
C433        C434   1.208       .  T
C435        C436   1.208       .  T
C437        C438   1.203       .  T
C439        C440   1.203       .  T
C441        C442   1.208       .  T
C443        C444   1.208       .  T
C445        C446   1.208       .  T
C447        C448   1.208       .  T
C449       C1842   1.208   1_545  T
C450       C1841   1.208       .  T
C451       C1380   1.208       .  T
C452       C1379   1.208       .  T
C453        C454   1.203       .  T
C455        C456   1.203       .  T
C457        C458   1.208       .  T
C459        C460   1.208       .  T
C461        C926   1.208       .  T
C462       C1181   1.438       .  S
C462        C925   1.208   1_545  T
C463        C464   1.208       .  T
C464       C1178   1.438       .  S
Zn465       O469   1.918   1_455  S
Zn465       O470   2.040       .  S
Zn465       O474   2.013       .  S
Zn465       O481   2.000       .  S
Zn466      O1397   1.920       .  S
Zn466       O471   2.046       .  S
Zn466       O473   2.006       .  S
Zn466       O477   2.016       .  S
Zn467      O1397   1.918       .  S
Zn467       O472   2.013       .  S
Zn467       O475   2.000       .  S
Zn467       O478   2.040       .  S
Zn468       O469   1.920   1_455  S
Zn468       O476   2.006       .  S
Zn468       O479   2.016       .  S
Zn468       O480   2.046       .  S
O469      Zn1394   1.920       .  S
O469      Zn1395   1.918       .  S
O470        C482   1.276   1_455  A
O471        C483   1.277       .  A
O472       C1412   1.276       .  A
O473       C1410   1.271       .  A
O474        C484   1.276   1_455  A
O475        C483   1.270       .  A
O476        C485   1.271       .  A
O477       C1414   1.277       .  A
O478       C1413   1.276       .  A
O479        C486   1.277   1_455  A
O480        C487   1.277       .  A
O481        C487   1.270       .  A
C482       O1401   1.271       .  A
C482       C1624   1.438       .  S
C483        C691   1.438       .  S
C484       O1400   1.276       .  A
C484        C917   1.430   1_554  S
C485       O1406   1.276   1_455  A
C485       C1622   1.438       .  S
C486       O1405   1.277       .  A
C486        C687   1.430       .  S
C487        C689   1.438       .  S
Zn488       O492   1.919   1_455  S
Zn488       O493   2.045       .  S
Zn488       O497   2.014       .  S
Zn488       O504   2.002       .  S
Zn489       O492   1.918   1_455  S
Zn489       O494   2.044       .  S
Zn489       O496   2.003       .  S
Zn489       O500   2.015       .  S
Zn490      O1420   1.919       .  S
Zn490       O495   2.014       .  S
Zn490       O498   2.002       .  S
Zn490       O501   2.045       .  S
Zn491      O1420   1.918       .  S
Zn491       O499   2.003       .  S
Zn491       O502   2.015       .  S
Zn491       O503   2.044       .  S
O492      Zn1418   1.919       .  S
O492      Zn1419   1.918       .  S
O493        C505   1.277       .  A
O494        C506   1.277   1_455  A
O495       C1435   1.277       .  A
O496        C505   1.270       .  A
O497        C507   1.277   1_455  A
O498       C1434   1.270       .  A
O499        C508   1.270       .  A
O500        C509   1.277   1_455  A
O501        C508   1.277       .  A
O502       C1437   1.277       .  A
O503       C1438   1.277       .  A
O504        C510   1.270       .  A
C505        C678   1.439       .  S
C506       O1426   1.270       .  A
C506        C681   1.438       .  S
C507       O1423   1.277       .  A
C507        C686   1.430       .  S
C508        C680   1.439       .  S
C509       O1430   1.277       .  A
C509        C688   1.430       .  S
C510       O1431   1.277   1_455  A
C510        C683   1.438       .  S
Zn511       O515   1.918       .  S
Zn511       O516   2.040       .  S
Zn511       O520   2.000       .  S
Zn511       O527   2.015       .  S
Zn512      O1443   1.921       .  S
Zn512       O517   2.014       .  S
Zn512       O519   2.006       .  S
Zn512       O523   2.046       .  S
Zn513       O515   1.921       .  S
Zn513       O518   2.046       .  S
Zn513       O521   2.014       .  S
Zn513       O524   2.006       .  S
Zn514      O1443   1.918       .  S
Zn514       O522   2.040       .  S
Zn514       O525   2.000       .  S
Zn514       O526   2.015       .  S
O515      Zn1440   1.921       .  S
O515      Zn1442   1.918       .  S
O516        C528   1.276       .  A
O517       C1457   1.277       .  A
O518        C530   1.277       .  A
O519       C1456   1.271       .  A
O520        C530   1.270       .  A
O521        C529   1.277       .  A
O522       C1459   1.276   1_455  A
O523        C532   1.277       .  A
O524        C531   1.271       .  A
O525        C532   1.270       .  A
O526       C1461   1.276       .  A
O527        C533   1.276       .  A
C528       O1447   1.271       .  A
C528        C695   1.438       .  S
C529       O1445   1.277       .  A
C529        C671   1.430       .  S
C530        C676   1.438       .  S
C531       O1450   1.276       .  A
C531        C693   1.438       .  S
C532        C674   1.438       .  S
C533       O1454   1.276       .  A
C533        C669   1.430       .  S
Zn534       O538   1.918       .  S
Zn534       O539   2.044       .  S
Zn534       O543   2.015       .  S
Zn534       O550   2.002       .  S
Zn535       O538   1.918       .  S
Zn535       O540   2.044       .  S
Zn535       O542   2.003       .  S
Zn535       O546   2.014       .  S
Zn536      O1466   1.918       .  S
Zn536       O541   2.015       .  S
Zn536       O544   2.002       .  S
Zn536       O547   2.044       .  S
Zn537      O1466   1.918       .  S
Zn537       O545   2.003       .  S
Zn537       O548   2.014       .  S
Zn537       O549   2.044       .  S
O538      Zn1464   1.918       .  S
O538      Zn1465   1.918       .  S
O539        C551   1.277       .  A
O540        C552   1.277       .  A
O541       C1481   1.277       .  A
O542        C551   1.270       .  A
O543        C553   1.277       .  A
O544       C1480   1.270       .  A
O545        C554   1.270       .  A
O546        C555   1.277       .  A
O547        C554   1.277       .  A
O548       C1483   1.277       .  A
O549       C1484   1.277   1_455  A
O550        C556   1.270       .  A
C551        C667   1.439       .  S
C552       O1472   1.270       .  A
C552        C684   1.438       .  S
C553       O1469   1.277       .  A
C553        C670   1.430       .  S
C554        C665   1.439       .  S
C555       O1476   1.277       .  A
C555        C904   1.430       .  S
C556       O1477   1.277       .  A
C556        C682   1.438       .  S
Zn557       O561   1.917       .  S
Zn557       O562   2.002       .  S
Zn557       O566   2.044       .  S
Zn557       O573   2.015       .  S
Zn558       O561   1.918       .  S
Zn558       O563   2.014       .  S
Zn558       O565   2.044       .  S
Zn558       O569   2.003       .  S
Zn559       O561   1.918       .  S
Zn559       O564   2.003       .  S
Zn559       O567   2.014       .  S
Zn559       O570   2.044       .  S
Zn560       O561   1.917       .  S
Zn560       O568   2.002       .  S
Zn560       O571   2.044       .  S
Zn560       O572   2.015       .  S
O562        C574   1.270       .  A
O563        C575   1.277       .  A
O564        C576   1.270       .  A
O565        C574   1.277       .  A
O566        C576   1.277       .  A
O567        C575   1.277       .  A
O568        C577   1.270       .  A
O569        C578   1.270       .  A
O570        C577   1.277       .  A
O571        C578   1.277       .  A
O572        C579   1.277       .  A
O573        C579   1.277       .  A
C574        C664   1.438       .  S
C575        C660   1.430       .  S
C576        C673   1.439       .  S
C577        C661   1.438       .  S
C578        C675   1.439       .  S
C579        C657   1.430       .  S
Zn580       O584   1.921       .  S
Zn580       O585   2.006       .  S
Zn580       O589   2.046       .  S
Zn580       O828   2.014       .  S
Zn581       O584   1.918       .  S
Zn581       O586   2.015       .  S
Zn581       O588   2.040       .  S
Zn581       O592   2.000       .  S
Zn582       O584   1.918       .  S
Zn582       O587   2.000       .  S
Zn582       O590   2.015       .  S
Zn582       O593   2.040       .  S
Zn583       O584   1.921       .  S
Zn583       O591   2.006       .  S
Zn583       O594   2.046       .  S
Zn583       O827   2.014       .  S
O585        C597   1.271       .  A
O586        C598   1.276       .  A
O587        C599   1.270       .  A
O588        C597   1.276       .  A
O589        C599   1.277       .  A
O590        C598   1.276       .  A
O591        C600   1.271       .  A
O592        C601   1.270       .  A
O593        C600   1.276       .  A
O594        C601   1.277       .  A
O595       Zn815   2.014   1_554  S
O595        C602   1.277       .  A
O596       Zn812   2.014   1_554  S
O596        C602   1.277       .  A
C597        C653   1.438       .  S
C598        C658   1.430       .  S
C599        C668   1.438       .  S
C600        C655   1.438       .  S
C601        C666   1.438       .  S
C602        C659   1.430       .  S
Zn603       O607   1.920       .  S
Zn603       O608   2.046       .  S
Zn603       O612   2.006       .  S
Zn603       O851   2.016   1_554  S
Zn604       O607   1.918       .  S
Zn604       O609   2.013       .  S
Zn604       O611   2.000       .  S
Zn604       O615   2.040       .  S
Zn605       O607   1.918       .  S
Zn605       O610   2.040       .  S
Zn605       O613   2.013       .  S
Zn605       O616   2.000       .  S
Zn606       O607   1.920       .  S
Zn606       O614   2.046       .  S
Zn606       O617   2.006       .  S
Zn606       O850   2.016   1_554  S
O608        C620   1.277       .  A
O609        C621   1.276       .  A
O610        C622   1.276       .  A
O611        C620   1.270       .  A
O612        C622   1.271       .  A
O613        C621   1.276       .  A
O614        C623   1.277       .  A
O615        C624   1.276       .  A
O616        C623   1.270       .  A
O617        C624   1.271       .  A
O618       Zn838   2.016       .  S
O618        C625   1.277       .  A
O619       Zn835   2.016       .  S
O619        C625   1.277       .  A
C620        C692   1.438       .  S
C621        C651   1.430       .  S
C622        C656   1.438       .  S
C623        C690   1.438       .  S
C624        C654   1.438       .  S
C625        C649   1.430       .  S
Zn626       O630   1.919       .  S
Zn626       O631   2.045       .  S
Zn626       O635   2.014       .  S
Zn626       O642   2.002       .  S
Zn627       O630   1.918       .  S
Zn627       O632   2.044       .  S
Zn627       O634   2.003       .  S
Zn627       O638   2.015       .  S
Zn628       O630   1.919       .  S
Zn628       O633   2.014       .  S
Zn628       O636   2.002       .  S
Zn628       O639   2.045       .  S
Zn629       O630   1.918       .  S
Zn629       O637   2.003       .  S
Zn629       O640   2.015       .  S
Zn629       O641   2.044       .  S
O631        C643   1.277       .  A
O632        C644   1.277       .  A
O633        C645   1.277       .  A
O634        C643   1.270       .  A
O635        C645   1.277       .  A
O636        C644   1.270       .  A
O637        C646   1.270       .  A
O638        C647   1.277       .  A
O639        C646   1.277       .  A
O640        C647   1.277       .  A
O641        C648   1.277       .  A
O642        C648   1.270       .  A
C643        C679   1.439       .  S
C644        C663   1.438       .  S
C645        C652   1.430       .  S
C646        C677   1.439       .  S
C647        C650   1.430       .  S
C648        C662   1.438       .  S
C649        C650   1.203       .  T
C651        C652   1.203       .  T
C655        C888   1.208       .  T
C656        C887   1.208   1_554  T
C657        C658   1.203       .  T
C659        C660   1.203       .  T
C663        C664   1.208       .  T
C665        C666   1.208       .  T
C667        C668   1.208       .  T
C669        C670   1.203       .  T
C671        C672   1.203       .  T
C672        C787   1.430   1_554  S
C673        C674   1.208       .  T
C675        C676   1.208       .  T
C677        C678   1.208       .  T
C679        C680   1.208       .  T
C681       C1146   1.208       .  T
C682       C1145   1.208   1_565  T
C683       C1612   1.208       .  T
C684       C1611   1.208       .  T
C685        C716   1.430       .  S
C685        C686   1.203       .  T
C687        C688   1.203       .  T
C689        C690   1.208       .  T
C691        C692   1.208       .  T
C694       C1413   1.438       .  S
C695        C696   1.208       .  T
C696       C1410   1.438       .  S
Zn697       O701   1.918   1_455  S
Zn697       O702   2.040       .  S
Zn697       O706   2.013       .  S
Zn697       O713   2.000       .  S
Zn698      O1629   1.920       .  S
Zn698       O703   2.046       .  S
Zn698       O705   2.006       .  S
Zn698       O709   2.016       .  S
Zn699      O1629   1.918       .  S
Zn699       O704   2.013       .  S
Zn699       O707   2.000       .  S
Zn699       O710   2.040       .  S
Zn700       O701   1.920   1_455  S
Zn700       O708   2.006       .  S
Zn700       O711   2.016       .  S
Zn700       O712   2.046       .  S
O701      Zn1626   1.920       .  S
O701      Zn1627   1.918       .  S
O702        C714   1.276   1_455  A
O703        C715   1.277       .  A
O704       C1644   1.276       .  A
O705       C1642   1.271       .  A
O706        C716   1.276   1_455  A
O707        C715   1.270       .  A
O708        C717   1.271       .  A
O709       C1646   1.277       .  A
O710       C1645   1.276       .  A
O711        C718   1.277   1_455  A
O712        C719   1.277       .  A
O713        C719   1.270       .  A
C714       O1633   1.271       .  A
C714       C1856   1.438       .  S
C715        C923   1.438       .  S
C716       O1632   1.276       .  A
C717       O1638   1.276   1_455  A
C717       C1854   1.438       .  S
C718       O1637   1.277       .  A
C718        C919   1.430       .  S
C719        C921   1.438       .  S
Zn720       O724   1.919   1_455  S
Zn720       O725   2.045       .  S
Zn720       O729   2.014       .  S
Zn720       O736   2.002       .  S
Zn721       O724   1.918   1_455  S
Zn721       O726   2.044       .  S
Zn721       O728   2.003       .  S
Zn721       O732   2.015       .  S
Zn722      O1652   1.919       .  S
Zn722       O727   2.014       .  S
Zn722       O730   2.002       .  S
Zn722       O733   2.045       .  S
Zn723      O1652   1.918       .  S
Zn723       O731   2.003       .  S
Zn723       O734   2.015       .  S
Zn723       O735   2.044       .  S
O724      Zn1650   1.919       .  S
O724      Zn1651   1.918       .  S
O725        C737   1.277       .  A
O726        C738   1.277   1_455  A
O727       C1667   1.277       .  A
O728        C737   1.270       .  A
O729        C739   1.277   1_455  A
O730       C1666   1.270       .  A
O731        C740   1.270       .  A
O732        C741   1.277   1_455  A
O733        C740   1.277       .  A
O734       C1669   1.277       .  A
O735       C1670   1.277       .  A
O736        C742   1.270       .  A
C737        C910   1.439       .  S
C738       O1658   1.270       .  A
C738        C913   1.438       .  S
C739       O1655   1.277       .  A
C739        C918   1.430       .  S
C740        C912   1.439       .  S
C741       O1662   1.277       .  A
C741        C920   1.430       .  S
C742       O1663   1.277   1_455  A
C742        C915   1.438       .  S
Zn743       O747   1.918       .  S
Zn743       O748   2.040       .  S
Zn743       O752   2.000       .  S
Zn743       O759   2.015       .  S
Zn744      O1675   1.921       .  S
Zn744       O749   2.014       .  S
Zn744       O751   2.006       .  S
Zn744       O755   2.046       .  S
Zn745       O747   1.921       .  S
Zn745       O750   2.046       .  S
Zn745       O753   2.014       .  S
Zn745       O756   2.006       .  S
Zn746      O1675   1.918       .  S
Zn746       O754   2.040       .  S
Zn746       O757   2.000       .  S
Zn746       O758   2.015       .  S
O747      Zn1672   1.921       .  S
O747      Zn1674   1.918       .  S
O748        C760   1.276       .  A
O749       C1689   1.277       .  A
O750        C762   1.277       .  A
O751       C1688   1.271       .  A
O752        C762   1.270       .  A
O753        C761   1.277       .  A
O754       C1691   1.276   1_455  A
O755        C764   1.277       .  A
O756        C763   1.271       .  A
O757        C764   1.270       .  A
O758       C1693   1.276       .  A
O759        C765   1.276       .  A
C760       O1679   1.271       .  A
C760        C927   1.438       .  S
C761       O1677   1.277       .  A
C761        C903   1.430       .  S
C762        C908   1.438       .  S
C763       O1682   1.276       .  A
C763        C925   1.438       .  S
C764        C906   1.438       .  S
C765       O1686   1.276       .  A
C765        C901   1.430       .  S
Zn766       O770   1.918       .  S
Zn766       O771   2.044       .  S
Zn766       O775   2.015       .  S
Zn766       O782   2.002       .  S
Zn767       O770   1.918       .  S
Zn767       O772   2.044       .  S
Zn767       O774   2.003       .  S
Zn767       O778   2.014       .  S
Zn768      O1698   1.918       .  S
Zn768       O773   2.015       .  S
Zn768       O776   2.002       .  S
Zn768       O779   2.044       .  S
Zn769      O1698   1.918       .  S
Zn769       O777   2.003       .  S
Zn769       O780   2.014       .  S
Zn769       O781   2.044       .  S
O770      Zn1696   1.918       .  S
O770      Zn1697   1.918       .  S
O771        C783   1.277       .  A
O772        C784   1.277       .  A
O773       C1713   1.277       .  A
O774        C783   1.270       .  A
O775        C785   1.277       .  A
O776       C1712   1.270       .  A
O777        C786   1.270       .  A
O778        C787   1.277       .  A
O779        C786   1.277       .  A
O780       C1715   1.277       .  A
O781       C1716   1.277   1_455  A
O782        C788   1.270       .  A
C783        C899   1.439       .  S
C784       O1704   1.270       .  A
C784        C916   1.438       .  S
C785       O1701   1.277       .  A
C785        C902   1.430       .  S
C786        C897   1.439       .  S
C787       O1708   1.277       .  A
C788       O1709   1.277       .  A
C788        C914   1.438       .  S
Zn789       O793   1.918       .  S
Zn789       O794   2.002       .  S
Zn789       O798   2.044       .  S
Zn789       O805   2.015       .  S
Zn790       O793   1.918       .  S
Zn790       O795   2.014       .  S
Zn790       O797   2.044       .  S
Zn790       O801   2.003       .  S
Zn791       O793   1.918       .  S
Zn791       O796   2.003       .  S
Zn791       O799   2.014       .  S
Zn791       O802   2.044       .  S
Zn792       O793   1.918       .  S
Zn792       O800   2.002       .  S
Zn792       O803   2.044       .  S
Zn792       O804   2.015       .  S
O794        C806   1.270       .  A
O795        C807   1.277       .  A
O796        C808   1.270       .  A
O797        C806   1.277       .  A
O798        C808   1.277       .  A
O799        C807   1.277       .  A
O800        C809   1.270       .  A
O801        C810   1.270       .  A
O802        C809   1.277       .  A
O803        C810   1.277       .  A
O804        C811   1.277       .  A
O805        C811   1.277       .  A
C806        C896   1.438       .  S
C807        C892   1.430       .  S
C808        C905   1.439       .  S
C809        C893   1.438       .  S
C810        C907   1.439       .  S
C811        C889   1.430       .  S
Zn812       O816   1.921       .  S
Zn812       O817   2.006       .  S
Zn812       O821   2.046       .  S
Zn813       O816   1.918       .  S
Zn813       O818   2.015       .  S
Zn813       O820   2.040       .  S
Zn813       O824   2.000       .  S
Zn814       O816   1.918       .  S
Zn814       O819   2.000       .  S
Zn814       O822   2.015       .  S
Zn814       O825   2.040       .  S
Zn815       O816   1.921       .  S
Zn815       O823   2.006       .  S
Zn815       O826   2.046       .  S
O817        C829   1.271       .  A
O818        C830   1.276       .  A
O819        C831   1.270       .  A
O820        C829   1.276       .  A
O821        C831   1.277       .  A
O822        C830   1.276       .  A
O823        C832   1.271       .  A
O824        C833   1.270       .  A
O825        C832   1.276       .  A
O826        C833   1.277       .  A
O827        C834   1.277       .  A
O828        C834   1.277       .  A
C829        C885   1.438       .  S
C830        C890   1.430       .  S
C831        C900   1.438       .  S
C832        C887   1.438       .  S
C833        C898   1.438       .  S
C834        C891   1.430       .  S
Zn835       O839   1.920       .  S
Zn835       O840   2.046       .  S
Zn835       O844   2.006       .  S
Zn836       O839   1.918       .  S
Zn836       O841   2.013       .  S
Zn836       O843   2.000       .  S
Zn836       O847   2.040       .  S
Zn837       O839   1.918       .  S
Zn837       O842   2.040       .  S
Zn837       O845   2.013       .  S
Zn837       O848   2.000       .  S
Zn838       O839   1.920       .  S
Zn838       O846   2.046       .  S
Zn838       O849   2.006       .  S
O840        C852   1.277       .  A
O841        C853   1.276       .  A
O842        C854   1.276       .  A
O843        C852   1.270       .  A
O844        C854   1.271       .  A
O845        C853   1.276       .  A
O846        C855   1.277       .  A
O847        C856   1.276       .  A
O848        C855   1.270       .  A
O849        C856   1.271       .  A
O850        C857   1.277       .  A
O851        C857   1.277       .  A
C852        C924   1.438       .  S
C853        C883   1.430       .  S
C854        C888   1.438       .  S
C855        C922   1.438       .  S
C856        C886   1.438       .  S
C857        C881   1.430       .  S
Zn858       O862   1.919       .  S
Zn858       O863   2.045       .  S
Zn858       O867   2.014       .  S
Zn858       O874   2.002       .  S
Zn859       O862   1.918       .  S
Zn859       O864   2.044       .  S
Zn859       O866   2.003       .  S
Zn859       O870   2.015       .  S
Zn860       O862   1.919       .  S
Zn860       O865   2.014       .  S
Zn860       O868   2.002       .  S
Zn860       O871   2.045       .  S
Zn861       O862   1.918       .  S
Zn861       O869   2.003       .  S
Zn861       O872   2.015       .  S
Zn861       O873   2.044       .  S
O863        C875   1.277       .  A
O864        C876   1.277       .  A
O865        C877   1.277       .  A
O866        C875   1.270       .  A
O867        C877   1.277       .  A
O868        C876   1.270       .  A
O869        C878   1.270       .  A
O870        C879   1.277       .  A
O871        C878   1.277       .  A
O872        C879   1.277       .  A
O873        C880   1.277       .  A
O874        C880   1.270       .  A
C875        C911   1.439       .  S
C876        C895   1.438       .  S
C877        C884   1.430       .  S
C878        C909   1.439       .  S
C879        C882   1.430       .  S
C880        C894   1.438       .  S
C881        C882   1.203       .  T
C883        C884   1.203       .  T
C889        C890   1.203       .  T
C891        C892   1.203       .  T
C895        C896   1.208       .  T
C897        C898   1.208       .  T
C899        C900   1.208       .  T
C901        C902   1.203       .  T
C903        C904   1.203       .  T
C905        C906   1.208       .  T
C907        C908   1.208       .  T
C909        C910   1.208       .  T
C911        C912   1.208       .  T
C913       C1378   1.208       .  T
C914       C1377   1.208   1_565  T
C915       C1844   1.208       .  T
C916       C1843   1.208       .  T
C917        C918   1.203       .  T
C919        C920   1.203       .  T
C921        C922   1.208       .  T
C923        C924   1.208       .  T
C926       C1645   1.438       .  S
C927        C928   1.208       .  T
C928       C1642   1.438       .  S
Zn929       O933   1.918       .  S
Zn929       O934   2.040       .  S
Zn929       O938   2.013       .  S
Zn929       O945   2.000       .  S
Zn930       O935   2.046       .  S
Zn930       O937   2.006       .  S
Zn930       O941   2.016       .  S
Zn931       O936   2.013       .  S
Zn931       O939   2.000       .  S
Zn931       O942   2.040       .  S
Zn932       O933   1.920       .  S
Zn932       O940   2.006       .  S
Zn932       O943   2.016       .  S
Zn932       O944   2.046       .  S
O934        C946   1.276       .  A
O935        C947   1.277       .  A
O938        C948   1.276       .  A
O939        C947   1.270       .  A
O940        C949   1.271       .  A
O943        C950   1.277       .  A
O944        C951   1.277       .  A
O945        C951   1.270       .  A
C947       C1155   1.438       .  S
C948       C1381   1.430   1_554  S
C950       C1151   1.430       .  S
C951       C1153   1.438       .  S
Zn952       O956   1.919       .  S
Zn952       O957   2.045       .  S
Zn952       O961   2.014       .  S
Zn952       O968   2.002       .  S
Zn953       O956   1.918       .  S
Zn953       O958   2.044       .  S
Zn953       O960   2.003       .  S
Zn953       O964   2.015       .  S
Zn954       O959   2.014       .  S
Zn954       O962   2.002       .  S
Zn954       O965   2.045       .  S
Zn955       O963   2.003       .  S
Zn955       O966   2.015       .  S
Zn955       O967   2.044       .  S
O957        C969   1.277       .  A
O958        C970   1.277       .  A
O960        C969   1.270       .  A
O961        C971   1.277       .  A
O963        C972   1.270       .  A
O964        C973   1.277       .  A
O965        C972   1.277       .  A
O968        C974   1.270       .  A
C969       C1142   1.439       .  S
C970       C1145   1.438       .  S
C971       C1150   1.430       .  S
C972       C1144   1.439       .  S
C973       C1152   1.430       .  S
C974       C1147   1.438       .  S
Zn975       O979   1.918   1_655  S
Zn975       O980   2.040       .  S
Zn975       O984   2.000       .  S
Zn975       O991   2.015       .  S
Zn976       O981   2.014       .  S
Zn976       O983   2.006       .  S
Zn976       O987   2.046       .  S
Zn977       O979   1.921   1_655  S
Zn977       O982   2.046       .  S
Zn977       O985   2.014       .  S
Zn977       O988   2.006       .  S
Zn978       O986   2.040       .  S
Zn978       O989   2.000       .  S
Zn978       O990   2.015       .  S
O980        C992   1.276   1_655  A
O982        C994   1.277       .  A
O984        C994   1.270       .  A
O985        C993   1.277   1_655  A
O987        C996   1.277       .  A
O988        C995   1.271       .  A
O989        C996   1.270       .  A
O991        C997   1.276   1_655  A
C992       C1159   1.438       .  S
C993       C1135   1.430       .  S
C994       C1140   1.438       .  S
C995       C1157   1.438       .  S
C996       C1138   1.438       .  S
C997       C1133   1.430       .  S
Zn998      O1002   1.918   1_655  S
Zn998      O1003   2.044       .  S
Zn998      O1007   2.015       .  S
Zn998      O1014   2.002       .  S
Zn999      O1002   1.918   1_655  S
Zn999      O1004   2.044       .  S
Zn999      O1006   2.003       .  S
Zn999      O1010   2.014       .  S
Zn1000     O1005   2.015       .  S
Zn1000     O1008   2.002       .  S
Zn1000     O1011   2.044       .  S
Zn1001     O1009   2.003       .  S
Zn1001     O1012   2.014       .  S
Zn1001     O1013   2.044       .  S
O1003      C1015   1.277       .  A
O1004      C1016   1.277   1_655  A
O1006      C1015   1.270       .  A
O1007      C1017   1.277   1_655  A
O1009      C1018   1.270       .  A
O1010      C1019   1.277   1_655  A
O1011      C1018   1.277       .  A
O1014      C1020   1.270       .  A
C1015      C1131   1.439       .  S
C1016      C1148   1.438       .  S
C1017      C1134   1.430       .  S
C1018      C1129   1.439       .  S
C1019      C1368   1.430       .  S
C1020      C1146   1.438       .  S
Zn1021     O1025   1.918       .  S
Zn1021     O1026   2.002       .  S
Zn1021     O1030   2.044       .  S
Zn1021     O1037   2.015       .  S
Zn1022     O1025   1.918       .  S
Zn1022     O1027   2.014       .  S
Zn1022     O1029   2.044       .  S
Zn1022     O1033   2.003       .  S
Zn1023     O1025   1.918       .  S
Zn1023     O1028   2.003       .  S
Zn1023     O1031   2.014       .  S
Zn1023     O1034   2.044       .  S
Zn1024     O1025   1.917       .  S
Zn1024     O1032   2.002       .  S
Zn1024     O1035   2.044       .  S
Zn1024     O1036   2.015       .  S
O1026      C1038   1.270       .  A
O1027      C1039   1.277       .  A
O1028      C1040   1.270       .  A
O1029      C1038   1.277       .  A
O1030      C1040   1.277       .  A
O1031      C1039   1.277       .  A
O1032      C1041   1.270       .  A
O1033      C1042   1.270       .  A
O1034      C1041   1.277       .  A
O1035      C1042   1.277       .  A
O1036      C1043   1.277       .  A
O1037      C1043   1.277       .  A
C1038      C1128   1.438       .  S
C1039      C1124   1.430       .  S
C1040      C1137   1.439       .  S
C1041      C1125   1.438       .  S
C1042      C1139   1.439       .  S
C1043      C1121   1.430       .  S
Zn1044     O1048   1.921       .  S
Zn1044     O1049   2.006       .  S
Zn1044     O1053   2.046       .  S
Zn1044     O1292   2.014       .  S
Zn1045     O1048   1.918       .  S
Zn1045     O1050   2.015       .  S
Zn1045     O1052   2.040       .  S
Zn1045     O1056   2.000       .  S
Zn1046     O1048   1.918       .  S
Zn1046     O1051   2.000       .  S
Zn1046     O1054   2.015       .  S
Zn1046     O1057   2.040       .  S
Zn1047     O1048   1.921       .  S
Zn1047     O1055   2.006       .  S
Zn1047     O1058   2.046       .  S
Zn1047     O1291   2.014       .  S
O1049      C1061   1.271       .  A
O1050      C1062   1.276       .  A
O1051      C1063   1.270       .  A
O1052      C1061   1.276       .  A
O1053      C1063   1.277       .  A
O1054      C1062   1.276       .  A
O1055      C1064   1.271       .  A
O1056      C1065   1.270       .  A
O1057      C1064   1.276       .  A
O1058      C1065   1.277       .  A
O1059     Zn1279   2.014   1_554  S
O1059      C1066   1.277       .  A
O1060     Zn1276   2.014   1_554  S
O1060      C1066   1.277       .  A
C1061      C1117   1.438       .  S
C1062      C1122   1.430       .  S
C1063      C1132   1.438       .  S
C1064      C1119   1.438       .  S
C1065      C1130   1.438       .  S
C1066      C1123   1.430       .  S
Zn1067     O1071   1.920       .  S
Zn1067     O1072   2.046       .  S
Zn1067     O1076   2.006       .  S
Zn1067     O1315   2.016   1_554  S
Zn1068     O1071   1.918       .  S
Zn1068     O1073   2.013       .  S
Zn1068     O1075   2.000       .  S
Zn1068     O1079   2.040       .  S
Zn1069     O1071   1.918       .  S
Zn1069     O1074   2.040       .  S
Zn1069     O1077   2.013       .  S
Zn1069     O1080   2.000       .  S
Zn1070     O1071   1.920       .  S
Zn1070     O1078   2.046       .  S
Zn1070     O1081   2.006       .  S
Zn1070     O1314   2.016   1_554  S
O1072      C1084   1.277       .  A
O1073      C1085   1.276       .  A
O1074      C1086   1.276       .  A
O1075      C1084   1.270       .  A
O1076      C1086   1.271       .  A
O1077      C1085   1.276       .  A
O1078      C1087   1.277       .  A
O1079      C1088   1.276       .  A
O1080      C1087   1.270       .  A
O1081      C1088   1.271       .  A
O1082     Zn1302   2.016       .  S
O1082      C1089   1.277       .  A
O1083     Zn1299   2.016       .  S
O1083      C1089   1.277       .  A
C1084      C1156   1.438       .  S
C1085      C1115   1.430       .  S
C1086      C1120   1.438       .  S
C1087      C1154   1.438       .  S
C1088      C1118   1.438       .  S
C1089      C1113   1.430       .  S
Zn1090     O1094   1.919       .  S
Zn1090     O1095   2.045       .  S
Zn1090     O1099   2.014       .  S
Zn1090     O1106   2.002       .  S
Zn1091     O1094   1.918       .  S
Zn1091     O1096   2.044       .  S
Zn1091     O1098   2.003       .  S
Zn1091     O1102   2.015       .  S
Zn1092     O1094   1.919       .  S
Zn1092     O1097   2.014       .  S
Zn1092     O1100   2.002       .  S
Zn1092     O1103   2.045       .  S
Zn1093     O1094   1.918       .  S
Zn1093     O1101   2.003       .  S
Zn1093     O1104   2.015       .  S
Zn1093     O1105   2.044       .  S
O1095      C1107   1.277       .  A
O1096      C1108   1.277       .  A
O1097      C1109   1.277       .  A
O1098      C1107   1.270       .  A
O1099      C1109   1.277       .  A
O1100      C1108   1.270       .  A
O1101      C1110   1.270       .  A
O1102      C1111   1.277       .  A
O1103      C1110   1.277       .  A
O1104      C1111   1.277       .  A
O1105      C1112   1.277       .  A
O1106      C1112   1.270       .  A
C1107      C1143   1.439       .  S
C1108      C1127   1.438       .  S
C1109      C1116   1.430       .  S
C1110      C1141   1.439       .  S
C1111      C1114   1.430       .  S
C1112      C1126   1.438       .  S
C1113      C1114   1.203       .  T
C1115      C1116   1.203       .  T
C1117      C1814   1.208       .  T
C1118      C1813   1.208   1_544  T
C1119      C1352   1.208       .  T
C1120      C1351   1.208   1_554  T
C1121      C1122   1.203       .  T
C1123      C1124   1.203       .  T
C1125      C1590   1.208       .  T
C1126      C1589   1.208   1_545  T
C1127      C1128   1.208       .  T
C1129      C1130   1.208       .  T
C1131      C1132   1.208       .  T
C1133      C1134   1.203       .  T
C1135      C1136   1.203       .  T
C1136      C1251   1.430   1_554  S
C1137      C1138   1.208       .  T
C1139      C1140   1.208       .  T
C1141      C1142   1.208       .  T
C1143      C1144   1.208       .  T
C1149      C1180   1.430       .  S
C1149      C1150   1.203       .  T
C1151      C1152   1.203       .  T
C1153      C1154   1.208       .  T
C1155      C1156   1.208       .  T
C1157      C1622   1.208   1_655  T
C1158      C1621   1.208   1_445  T
C1159      C1160   1.208   1_455  T
Zn1161     O1165   1.918       .  S
Zn1161     O1166   2.040       .  S
Zn1161     O1170   2.013       .  S
Zn1161     O1177   2.000       .  S
Zn1162     O1167   2.046       .  S
Zn1162     O1169   2.006       .  S
Zn1162     O1173   2.016       .  S
Zn1163     O1168   2.013       .  S
Zn1163     O1171   2.000       .  S
Zn1163     O1174   2.040       .  S
Zn1164     O1165   1.920       .  S
Zn1164     O1172   2.006       .  S
Zn1164     O1175   2.016       .  S
Zn1164     O1176   2.046       .  S
O1166      C1178   1.276       .  A
O1167      C1179   1.277       .  A
O1170      C1180   1.276       .  A
O1171      C1179   1.270       .  A
O1172      C1181   1.271       .  A
O1175      C1182   1.277       .  A
O1176      C1183   1.277       .  A
O1177      C1183   1.270       .  A
C1179      C1387   1.438       .  S
C1182      C1383   1.430       .  S
C1183      C1385   1.438       .  S
Zn1184     O1188   1.919       .  S
Zn1184     O1189   2.045       .  S
Zn1184     O1193   2.014       .  S
Zn1184     O1200   2.002       .  S
Zn1185     O1188   1.918       .  S
Zn1185     O1190   2.044       .  S
Zn1185     O1192   2.003       .  S
Zn1185     O1196   2.015       .  S
Zn1186     O1191   2.014       .  S
Zn1186     O1194   2.002       .  S
Zn1186     O1197   2.045       .  S
Zn1187     O1195   2.003       .  S
Zn1187     O1198   2.015       .  S
Zn1187     O1199   2.044       .  S
O1189      C1201   1.277       .  A
O1190      C1202   1.277       .  A
O1192      C1201   1.270       .  A
O1193      C1203   1.277       .  A
O1195      C1204   1.270       .  A
O1196      C1205   1.277       .  A
O1197      C1204   1.277       .  A
O1200      C1206   1.270       .  A
C1201      C1374   1.439       .  S
C1202      C1377   1.438       .  S
C1203      C1382   1.430       .  S
C1204      C1376   1.439       .  S
C1205      C1384   1.430       .  S
C1206      C1379   1.438       .  S
Zn1207     O1211   1.918   1_655  S
Zn1207     O1212   2.040       .  S
Zn1207     O1216   2.000       .  S
Zn1207     O1223   2.015       .  S
Zn1208     O1213   2.014       .  S
Zn1208     O1215   2.006       .  S
Zn1208     O1219   2.046       .  S
Zn1209     O1211   1.921   1_655  S
Zn1209     O1214   2.046       .  S
Zn1209     O1217   2.014       .  S
Zn1209     O1220   2.006       .  S
Zn1210     O1218   2.040       .  S
Zn1210     O1221   2.000       .  S
Zn1210     O1222   2.015       .  S
O1212      C1224   1.276   1_655  A
O1214      C1226   1.277       .  A
O1216      C1226   1.270       .  A
O1217      C1225   1.277   1_655  A
O1219      C1228   1.277       .  A
O1220      C1227   1.271       .  A
O1221      C1228   1.270       .  A
O1223      C1229   1.276   1_655  A
C1224      C1391   1.438       .  S
C1225      C1367   1.430       .  S
C1226      C1372   1.438       .  S
C1227      C1389   1.438       .  S
C1228      C1370   1.438       .  S
C1229      C1365   1.430       .  S
Zn1230     O1234   1.918   1_655  S
Zn1230     O1235   2.044       .  S
Zn1230     O1239   2.015       .  S
Zn1230     O1246   2.002       .  S
Zn1231     O1234   1.918   1_655  S
Zn1231     O1236   2.044       .  S
Zn1231     O1238   2.003       .  S
Zn1231     O1242   2.014       .  S
Zn1232     O1237   2.015       .  S
Zn1232     O1240   2.002       .  S
Zn1232     O1243   2.044       .  S
Zn1233     O1241   2.003       .  S
Zn1233     O1244   2.014       .  S
Zn1233     O1245   2.044       .  S
O1235      C1247   1.277       .  A
O1236      C1248   1.277   1_655  A
O1238      C1247   1.270       .  A
O1239      C1249   1.277   1_655  A
O1241      C1250   1.270       .  A
O1242      C1251   1.277   1_655  A
O1243      C1250   1.277       .  A
O1246      C1252   1.270       .  A
C1247      C1363   1.439       .  S
C1248      C1380   1.438       .  S
C1249      C1366   1.430       .  S
C1250      C1361   1.439       .  S
C1252      C1378   1.438       .  S
Zn1253     O1257   1.918       .  S
Zn1253     O1258   2.002       .  S
Zn1253     O1262   2.044       .  S
Zn1253     O1269   2.015       .  S
Zn1254     O1257   1.918       .  S
Zn1254     O1259   2.014       .  S
Zn1254     O1261   2.044       .  S
Zn1254     O1265   2.003       .  S
Zn1255     O1257   1.918       .  S
Zn1255     O1260   2.003       .  S
Zn1255     O1263   2.014       .  S
Zn1255     O1266   2.044       .  S
Zn1256     O1257   1.918       .  S
Zn1256     O1264   2.002       .  S
Zn1256     O1267   2.044       .  S
Zn1256     O1268   2.015       .  S
O1258      C1270   1.270       .  A
O1259      C1271   1.277       .  A
O1260      C1272   1.270       .  A
O1261      C1270   1.277       .  A
O1262      C1272   1.277       .  A
O1263      C1271   1.277       .  A
O1264      C1273   1.270       .  A
O1265      C1274   1.270       .  A
O1266      C1273   1.277       .  A
O1267      C1274   1.277       .  A
O1268      C1275   1.277       .  A
O1269      C1275   1.277       .  A
C1270      C1360   1.438       .  S
C1271      C1356   1.430       .  S
C1272      C1369   1.439       .  S
C1273      C1357   1.438       .  S
C1274      C1371   1.439       .  S
C1275      C1353   1.430       .  S
Zn1276     O1280   1.921       .  S
Zn1276     O1281   2.006       .  S
Zn1276     O1285   2.046       .  S
Zn1277     O1280   1.918       .  S
Zn1277     O1282   2.015       .  S
Zn1277     O1284   2.040       .  S
Zn1277     O1288   2.000       .  S
Zn1278     O1280   1.918       .  S
Zn1278     O1283   2.000       .  S
Zn1278     O1286   2.015       .  S
Zn1278     O1289   2.040       .  S
Zn1279     O1280   1.921       .  S
Zn1279     O1287   2.006       .  S
Zn1279     O1290   2.046       .  S
O1281      C1293   1.271       .  A
O1282      C1294   1.276       .  A
O1283      C1295   1.270       .  A
O1284      C1293   1.276       .  A
O1285      C1295   1.277       .  A
O1286      C1294   1.276       .  A
O1287      C1296   1.271       .  A
O1288      C1297   1.270       .  A
O1289      C1296   1.276       .  A
O1290      C1297   1.277       .  A
O1291      C1298   1.277       .  A
O1292      C1298   1.277       .  A
C1293      C1349   1.438       .  S
C1294      C1354   1.430       .  S
C1295      C1364   1.438       .  S
C1296      C1351   1.438       .  S
C1297      C1362   1.438       .  S
C1298      C1355   1.430       .  S
Zn1299     O1303   1.920       .  S
Zn1299     O1304   2.046       .  S
Zn1299     O1308   2.006       .  S
Zn1300     O1303   1.918       .  S
Zn1300     O1305   2.013       .  S
Zn1300     O1307   2.000       .  S
Zn1300     O1311   2.040       .  S
Zn1301     O1303   1.918       .  S
Zn1301     O1306   2.040       .  S
Zn1301     O1309   2.013       .  S
Zn1301     O1312   2.000       .  S
Zn1302     O1303   1.920       .  S
Zn1302     O1310   2.046       .  S
Zn1302     O1313   2.006       .  S
O1304      C1316   1.277       .  A
O1305      C1317   1.276       .  A
O1306      C1318   1.276       .  A
O1307      C1316   1.270       .  A
O1308      C1318   1.271       .  A
O1309      C1317   1.276       .  A
O1310      C1319   1.277       .  A
O1311      C1320   1.276       .  A
O1312      C1319   1.270       .  A
O1313      C1320   1.271       .  A
O1314      C1321   1.277       .  A
O1315      C1321   1.277       .  A
C1316      C1388   1.438       .  S
C1317      C1347   1.430       .  S
C1318      C1352   1.438       .  S
C1319      C1386   1.438       .  S
C1320      C1350   1.438       .  S
C1321      C1345   1.430       .  S
Zn1322     O1326   1.919       .  S
Zn1322     O1327   2.045       .  S
Zn1322     O1331   2.014       .  S
Zn1322     O1338   2.002       .  S
Zn1323     O1326   1.918       .  S
Zn1323     O1328   2.044       .  S
Zn1323     O1330   2.003       .  S
Zn1323     O1334   2.015       .  S
Zn1324     O1326   1.919       .  S
Zn1324     O1329   2.014       .  S
Zn1324     O1332   2.002       .  S
Zn1324     O1335   2.045       .  S
Zn1325     O1326   1.918       .  S
Zn1325     O1333   2.003       .  S
Zn1325     O1336   2.015       .  S
Zn1325     O1337   2.044       .  S
O1327      C1339   1.277       .  A
O1328      C1340   1.277       .  A
O1329      C1341   1.277       .  A
O1330      C1339   1.270       .  A
O1331      C1341   1.277       .  A
O1332      C1340   1.270       .  A
O1333      C1342   1.270       .  A
O1334      C1343   1.277       .  A
O1335      C1342   1.277       .  A
O1336      C1343   1.277       .  A
O1337      C1344   1.277       .  A
O1338      C1344   1.270       .  A
C1339      C1375   1.439       .  S
C1340      C1359   1.438       .  S
C1341      C1348   1.430       .  S
C1342      C1373   1.439       .  S
C1343      C1346   1.430       .  S
C1344      C1358   1.438       .  S
C1345      C1346   1.203       .  T
C1347      C1348   1.203       .  T
C1349      C1582   1.208   1_556  T
C1350      C1581   1.208   1_545  T
C1353      C1354   1.203       .  T
C1355      C1356   1.203       .  T
C1357      C1822   1.208       .  T
C1358      C1821   1.208   1_545  T
C1359      C1360   1.208       .  T
C1361      C1362   1.208       .  T
C1363      C1364   1.208       .  T
C1365      C1366   1.203       .  T
C1367      C1368   1.203       .  T
C1369      C1370   1.208       .  T
C1371      C1372   1.208       .  T
C1373      C1374   1.208       .  T
C1375      C1376   1.208       .  T
C1381      C1382   1.203       .  T
C1383      C1384   1.203       .  T
C1385      C1386   1.208       .  T
C1387      C1388   1.208       .  T
C1389      C1854   1.208   1_655  T
C1390      C1853   1.208   1_445  T
C1391      C1392   1.208   1_455  T
Zn1393     O1397   1.918       .  S
Zn1393     O1398   2.040       .  S
Zn1393     O1402   2.013       .  S
Zn1393     O1409   2.000       .  S
Zn1394     O1399   2.046       .  S
Zn1394     O1401   2.006       .  S
Zn1394     O1405   2.016       .  S
Zn1395     O1400   2.013       .  S
Zn1395     O1403   2.000       .  S
Zn1395     O1406   2.040       .  S
Zn1396     O1397   1.920       .  S
Zn1396     O1404   2.006       .  S
Zn1396     O1407   2.016       .  S
Zn1396     O1408   2.046       .  S
O1398      C1410   1.276       .  A
O1399      C1411   1.277       .  A
O1402      C1412   1.276       .  A
O1403      C1411   1.270       .  A
O1404      C1413   1.271       .  A
O1407      C1414   1.277       .  A
O1408      C1415   1.277       .  A
O1409      C1415   1.270       .  A
C1411      C1619   1.438       .  S
C1412      C1845   1.430   1_554  S
C1414      C1615   1.430       .  S
C1415      C1617   1.438       .  S
Zn1416     O1420   1.919       .  S
Zn1416     O1421   2.045       .  S
Zn1416     O1425   2.014       .  S
Zn1416     O1432   2.002       .  S
Zn1417     O1420   1.918       .  S
Zn1417     O1422   2.044       .  S
Zn1417     O1424   2.003       .  S
Zn1417     O1428   2.015       .  S
Zn1418     O1423   2.014       .  S
Zn1418     O1426   2.002       .  S
Zn1418     O1429   2.045       .  S
Zn1419     O1427   2.003       .  S
Zn1419     O1430   2.015       .  S
Zn1419     O1431   2.044       .  S
O1421      C1433   1.277       .  A
O1422      C1434   1.277       .  A
O1424      C1433   1.270       .  A
O1425      C1435   1.277       .  A
O1427      C1436   1.270       .  A
O1428      C1437   1.277       .  A
O1429      C1436   1.277       .  A
O1432      C1438   1.270       .  A
C1433      C1606   1.439       .  S
C1434      C1609   1.438       .  S
C1435      C1614   1.430       .  S
C1436      C1608   1.439       .  S
C1437      C1616   1.430       .  S
C1438      C1611   1.438       .  S
Zn1439     O1443   1.918   1_655  S
Zn1439     O1444   2.040       .  S
Zn1439     O1448   2.000       .  S
Zn1439     O1455   2.015       .  S
Zn1440     O1445   2.014       .  S
Zn1440     O1447   2.006       .  S
Zn1440     O1451   2.046       .  S
Zn1441     O1443   1.921   1_655  S
Zn1441     O1446   2.046       .  S
Zn1441     O1449   2.014       .  S
Zn1441     O1452   2.006       .  S
Zn1442     O1450   2.040       .  S
Zn1442     O1453   2.000       .  S
Zn1442     O1454   2.015       .  S
O1444      C1456   1.276   1_655  A
O1446      C1458   1.277       .  A
O1448      C1458   1.270       .  A
O1449      C1457   1.277   1_655  A
O1451      C1460   1.277       .  A
O1452      C1459   1.271       .  A
O1453      C1460   1.270       .  A
O1455      C1461   1.276   1_655  A
C1456      C1623   1.438       .  S
C1457      C1599   1.430       .  S
C1458      C1604   1.438       .  S
C1459      C1621   1.438       .  S
C1460      C1602   1.438       .  S
C1461      C1597   1.430       .  S
Zn1462     O1466   1.917   1_655  S
Zn1462     O1467   2.044       .  S
Zn1462     O1471   2.015       .  S
Zn1462     O1478   2.002       .  S
Zn1463     O1466   1.918   1_655  S
Zn1463     O1468   2.044       .  S
Zn1463     O1470   2.003       .  S
Zn1463     O1474   2.014       .  S
Zn1464     O1469   2.015       .  S
Zn1464     O1472   2.002       .  S
Zn1464     O1475   2.044       .  S
Zn1465     O1473   2.003       .  S
Zn1465     O1476   2.014       .  S
Zn1465     O1477   2.044       .  S
O1467      C1479   1.277       .  A
O1468      C1480   1.277   1_655  A
O1470      C1479   1.270       .  A
O1471      C1481   1.277   1_655  A
O1473      C1482   1.270       .  A
O1474      C1483   1.277   1_655  A
O1475      C1482   1.277       .  A
O1478      C1484   1.270       .  A
C1479      C1595   1.439       .  S
C1480      C1612   1.438       .  S
C1481      C1598   1.430       .  S
C1482      C1593   1.439       .  S
C1483      C1832   1.430       .  S
C1484      C1610   1.438       .  S
Zn1485     O1489   1.917       .  S
Zn1485     O1490   2.002       .  S
Zn1485     O1494   2.044       .  S
Zn1485     O1501   2.015       .  S
Zn1486     O1489   1.918       .  S
Zn1486     O1491   2.014       .  S
Zn1486     O1493   2.044       .  S
Zn1486     O1497   2.003       .  S
Zn1487     O1489   1.918       .  S
Zn1487     O1492   2.003       .  S
Zn1487     O1495   2.014       .  S
Zn1487     O1498   2.044       .  S
Zn1488     O1489   1.918       .  S
Zn1488     O1496   2.002       .  S
Zn1488     O1499   2.044       .  S
Zn1488     O1500   2.015       .  S
O1490      C1502   1.270       .  A
O1491      C1503   1.277       .  A
O1492      C1504   1.270       .  A
O1493      C1502   1.277       .  A
O1494      C1504   1.277       .  A
O1495      C1503   1.277       .  A
O1496      C1505   1.270       .  A
O1497      C1506   1.270       .  A
O1498      C1505   1.277       .  A
O1499      C1506   1.277       .  A
O1500      C1507   1.277       .  A
O1501      C1507   1.277       .  A
C1502      C1592   1.438       .  S
C1503      C1588   1.430       .  S
C1504      C1601   1.439       .  S
C1505      C1589   1.438       .  S
C1506      C1603   1.439       .  S
C1507      C1585   1.430       .  S
Zn1508     O1512   1.921       .  S
Zn1508     O1513   2.006       .  S
Zn1508     O1517   2.046       .  S
Zn1508     O1756   2.014       .  S
Zn1509     O1512   1.918       .  S
Zn1509     O1514   2.015       .  S
Zn1509     O1516   2.040       .  S
Zn1509     O1520   2.000       .  S
Zn1510     O1512   1.918       .  S
Zn1510     O1515   2.000       .  S
Zn1510     O1518   2.015       .  S
Zn1510     O1521   2.040       .  S
Zn1511     O1512   1.921       .  S
Zn1511     O1519   2.006       .  S
Zn1511     O1522   2.046       .  S
Zn1511     O1755   2.014       .  S
O1513      C1525   1.271       .  A
O1514      C1526   1.276       .  A
O1515      C1527   1.270       .  A
O1516      C1525   1.276       .  A
O1517      C1527   1.277       .  A
O1518      C1526   1.276       .  A
O1519      C1528   1.271       .  A
O1520      C1529   1.270       .  A
O1521      C1528   1.276       .  A
O1522      C1529   1.277       .  A
O1523     Zn1743   2.014   1_554  S
O1523      C1530   1.277       .  A
O1524     Zn1740   2.014   1_554  S
O1524      C1530   1.277       .  A
C1525      C1581   1.438       .  S
C1526      C1586   1.430       .  S
C1527      C1596   1.438       .  S
C1528      C1583   1.438       .  S
C1529      C1594   1.438       .  S
C1530      C1587   1.430       .  S
Zn1531     O1535   1.920       .  S
Zn1531     O1536   2.046       .  S
Zn1531     O1540   2.006       .  S
Zn1531     O1779   2.016   1_554  S
Zn1532     O1535   1.918       .  S
Zn1532     O1537   2.013       .  S
Zn1532     O1539   2.000       .  S
Zn1532     O1543   2.040       .  S
Zn1533     O1535   1.918       .  S
Zn1533     O1538   2.040       .  S
Zn1533     O1541   2.013       .  S
Zn1533     O1544   2.000       .  S
Zn1534     O1535   1.920       .  S
Zn1534     O1542   2.046       .  S
Zn1534     O1545   2.006       .  S
Zn1534     O1778   2.016   1_554  S
O1536      C1548   1.277       .  A
O1537      C1549   1.276       .  A
O1538      C1550   1.276       .  A
O1539      C1548   1.270       .  A
O1540      C1550   1.271       .  A
O1541      C1549   1.276       .  A
O1542      C1551   1.277       .  A
O1543      C1552   1.276       .  A
O1544      C1551   1.270       .  A
O1545      C1552   1.271       .  A
O1546     Zn1766   2.016       .  S
O1546      C1553   1.277       .  A
O1547     Zn1763   2.016       .  S
O1547      C1553   1.277       .  A
C1548      C1620   1.438       .  S
C1549      C1579   1.430       .  S
C1550      C1584   1.438       .  S
C1551      C1618   1.438       .  S
C1552      C1582   1.438       .  S
C1553      C1577   1.430       .  S
Zn1554     O1558   1.919       .  S
Zn1554     O1559   2.045       .  S
Zn1554     O1563   2.014       .  S
Zn1554     O1570   2.002       .  S
Zn1555     O1558   1.918       .  S
Zn1555     O1560   2.044       .  S
Zn1555     O1562   2.003       .  S
Zn1555     O1566   2.015       .  S
Zn1556     O1558   1.919       .  S
Zn1556     O1561   2.014       .  S
Zn1556     O1564   2.002       .  S
Zn1556     O1567   2.045       .  S
Zn1557     O1558   1.918       .  S
Zn1557     O1565   2.003       .  S
Zn1557     O1568   2.015       .  S
Zn1557     O1569   2.044       .  S
O1559      C1571   1.277       .  A
O1560      C1572   1.277       .  A
O1561      C1573   1.277       .  A
O1562      C1571   1.270       .  A
O1563      C1573   1.277       .  A
O1564      C1572   1.270       .  A
O1565      C1574   1.270       .  A
O1566      C1575   1.277       .  A
O1567      C1574   1.277       .  A
O1568      C1575   1.277       .  A
O1569      C1576   1.277       .  A
O1570      C1576   1.270       .  A
C1571      C1607   1.439       .  S
C1572      C1591   1.438       .  S
C1573      C1580   1.430       .  S
C1574      C1605   1.439       .  S
C1575      C1578   1.430       .  S
C1576      C1590   1.438       .  S
C1577      C1578   1.203       .  T
C1579      C1580   1.203       .  T
C1583      C1816   1.208       .  T
C1584      C1815   1.208   1_554  T
C1585      C1586   1.203       .  T
C1587      C1588   1.203       .  T
C1591      C1592   1.208       .  T
C1593      C1594   1.208       .  T
C1595      C1596   1.208       .  T
C1597      C1598   1.203       .  T
C1599      C1600   1.203       .  T
C1600      C1715   1.430   1_554  S
C1601      C1602   1.208       .  T
C1603      C1604   1.208       .  T
C1605      C1606   1.208       .  T
C1607      C1608   1.208       .  T
C1613      C1644   1.430       .  S
C1613      C1614   1.203       .  T
C1615      C1616   1.203       .  T
C1617      C1618   1.208       .  T
C1619      C1620   1.208       .  T
C1623      C1624   1.208   1_455  T
Zn1625     O1629   1.918       .  S
Zn1625     O1630   2.040       .  S
Zn1625     O1634   2.013       .  S
Zn1625     O1641   2.000       .  S
Zn1626     O1631   2.046       .  S
Zn1626     O1633   2.006       .  S
Zn1626     O1637   2.016       .  S
Zn1627     O1632   2.013       .  S
Zn1627     O1635   2.000       .  S
Zn1627     O1638   2.040       .  S
Zn1628     O1629   1.920       .  S
Zn1628     O1636   2.006       .  S
Zn1628     O1639   2.016       .  S
Zn1628     O1640   2.046       .  S
O1630      C1642   1.276       .  A
O1631      C1643   1.277       .  A
O1634      C1644   1.276       .  A
O1635      C1643   1.270       .  A
O1636      C1645   1.271       .  A
O1639      C1646   1.277       .  A
O1640      C1647   1.277       .  A
O1641      C1647   1.270       .  A
C1643      C1851   1.438       .  S
C1646      C1847   1.430       .  S
C1647      C1849   1.438       .  S
Zn1648     O1652   1.919       .  S
Zn1648     O1653   2.045       .  S
Zn1648     O1657   2.014       .  S
Zn1648     O1664   2.002       .  S
Zn1649     O1652   1.918       .  S
Zn1649     O1654   2.044       .  S
Zn1649     O1656   2.003       .  S
Zn1649     O1660   2.015       .  S
Zn1650     O1655   2.014       .  S
Zn1650     O1658   2.002       .  S
Zn1650     O1661   2.045       .  S
Zn1651     O1659   2.003       .  S
Zn1651     O1662   2.015       .  S
Zn1651     O1663   2.044       .  S
O1653      C1665   1.277       .  A
O1654      C1666   1.277       .  A
O1656      C1665   1.270       .  A
O1657      C1667   1.277       .  A
O1659      C1668   1.270       .  A
O1660      C1669   1.277       .  A
O1661      C1668   1.277       .  A
O1664      C1670   1.270       .  A
C1665      C1838   1.439       .  S
C1666      C1841   1.438       .  S
C1667      C1846   1.430       .  S
C1668      C1840   1.439       .  S
C1669      C1848   1.430       .  S
C1670      C1843   1.438       .  S
Zn1671     O1675   1.918   1_655  S
Zn1671     O1676   2.040       .  S
Zn1671     O1680   2.000       .  S
Zn1671     O1687   2.015       .  S
Zn1672     O1677   2.014       .  S
Zn1672     O1679   2.006       .  S
Zn1672     O1683   2.046       .  S
Zn1673     O1675   1.921   1_655  S
Zn1673     O1678   2.046       .  S
Zn1673     O1681   2.014       .  S
Zn1673     O1684   2.006       .  S
Zn1674     O1682   2.040       .  S
Zn1674     O1685   2.000       .  S
Zn1674     O1686   2.015       .  S
O1676      C1688   1.276   1_655  A
O1678      C1690   1.277       .  A
O1680      C1690   1.270       .  A
O1681      C1689   1.277   1_655  A
O1683      C1692   1.277       .  A
O1684      C1691   1.271       .  A
O1685      C1692   1.270       .  A
O1687      C1693   1.276   1_655  A
C1688      C1855   1.438       .  S
C1689      C1831   1.430       .  S
C1690      C1836   1.438       .  S
C1691      C1853   1.438       .  S
C1692      C1834   1.438       .  S
C1693      C1829   1.430       .  S
Zn1694     O1698   1.918   1_655  S
Zn1694     O1699   2.044       .  S
Zn1694     O1703   2.015       .  S
Zn1694     O1710   2.002       .  S
Zn1695     O1698   1.918   1_655  S
Zn1695     O1700   2.044       .  S
Zn1695     O1702   2.003       .  S
Zn1695     O1706   2.014       .  S
Zn1696     O1701   2.015       .  S
Zn1696     O1704   2.002       .  S
Zn1696     O1707   2.044       .  S
Zn1697     O1705   2.003       .  S
Zn1697     O1708   2.014       .  S
Zn1697     O1709   2.044       .  S
O1699      C1711   1.277       .  A
O1700      C1712   1.277   1_655  A
O1702      C1711   1.270       .  A
O1703      C1713   1.277   1_655  A
O1705      C1714   1.270       .  A
O1706      C1715   1.277   1_655  A
O1707      C1714   1.277       .  A
O1710      C1716   1.270       .  A
C1711      C1827   1.439       .  S
C1712      C1844   1.438       .  S
C1713      C1830   1.430       .  S
C1714      C1825   1.439       .  S
C1716      C1842   1.438       .  S
Zn1717     O1721   1.918       .  S
Zn1717     O1722   2.002       .  S
Zn1717     O1726   2.044       .  S
Zn1717     O1733   2.015       .  S
Zn1718     O1721   1.918       .  S
Zn1718     O1723   2.014       .  S
Zn1718     O1725   2.044       .  S
Zn1718     O1729   2.003       .  S
Zn1719     O1721   1.918       .  S
Zn1719     O1724   2.003       .  S
Zn1719     O1727   2.014       .  S
Zn1719     O1730   2.044       .  S
Zn1720     O1721   1.918       .  S
Zn1720     O1728   2.002       .  S
Zn1720     O1731   2.044       .  S
Zn1720     O1732   2.015       .  S
O1722      C1734   1.270       .  A
O1723      C1735   1.277       .  A
O1724      C1736   1.270       .  A
O1725      C1734   1.277       .  A
O1726      C1736   1.277       .  A
O1727      C1735   1.277       .  A
O1728      C1737   1.270       .  A
O1729      C1738   1.270       .  A
O1730      C1737   1.277       .  A
O1731      C1738   1.277       .  A
O1732      C1739   1.277       .  A
O1733      C1739   1.277       .  A
C1734      C1824   1.438       .  S
C1735      C1820   1.430       .  S
C1736      C1833   1.439       .  S
C1737      C1821   1.438       .  S
C1738      C1835   1.439       .  S
C1739      C1817   1.430       .  S
Zn1740     O1744   1.921       .  S
Zn1740     O1745   2.006       .  S
Zn1740     O1749   2.046       .  S
Zn1741     O1744   1.918       .  S
Zn1741     O1746   2.015       .  S
Zn1741     O1748   2.040       .  S
Zn1741     O1752   2.000       .  S
Zn1742     O1744   1.918       .  S
Zn1742     O1747   2.000       .  S
Zn1742     O1750   2.015       .  S
Zn1742     O1753   2.040       .  S
Zn1743     O1744   1.921       .  S
Zn1743     O1751   2.006       .  S
Zn1743     O1754   2.046       .  S
O1745      C1757   1.271       .  A
O1746      C1758   1.276       .  A
O1747      C1759   1.270       .  A
O1748      C1757   1.276       .  A
O1749      C1759   1.277       .  A
O1750      C1758   1.276       .  A
O1751      C1760   1.271       .  A
O1752      C1761   1.270       .  A
O1753      C1760   1.276       .  A
O1754      C1761   1.277       .  A
O1755      C1762   1.277       .  A
O1756      C1762   1.277       .  A
C1757      C1813   1.438       .  S
C1758      C1818   1.430       .  S
C1759      C1828   1.438       .  S
C1760      C1815   1.438       .  S
C1761      C1826   1.438       .  S
C1762      C1819   1.430       .  S
Zn1763     O1767   1.920       .  S
Zn1763     O1768   2.046       .  S
Zn1763     O1772   2.006       .  S
Zn1764     O1767   1.918       .  S
Zn1764     O1769   2.013       .  S
Zn1764     O1771   2.000       .  S
Zn1764     O1775   2.040       .  S
Zn1765     O1767   1.918       .  S
Zn1765     O1770   2.040       .  S
Zn1765     O1773   2.013       .  S
Zn1765     O1776   2.000       .  S
Zn1766     O1767   1.920       .  S
Zn1766     O1774   2.046       .  S
Zn1766     O1777   2.006       .  S
O1768      C1780   1.277       .  A
O1769      C1781   1.276       .  A
O1770      C1782   1.276       .  A
O1771      C1780   1.270       .  A
O1772      C1782   1.271       .  A
O1773      C1781   1.276       .  A
O1774      C1783   1.277       .  A
O1775      C1784   1.276       .  A
O1776      C1783   1.270       .  A
O1777      C1784   1.271       .  A
O1778      C1785   1.277       .  A
O1779      C1785   1.277       .  A
C1780      C1852   1.438       .  S
C1781      C1811   1.430       .  S
C1782      C1816   1.438       .  S
C1783      C1850   1.438       .  S
C1784      C1814   1.438       .  S
C1785      C1809   1.430       .  S
Zn1786     O1790   1.919       .  S
Zn1786     O1791   2.045       .  S
Zn1786     O1795   2.014       .  S
Zn1786     O1802   2.002       .  S
Zn1787     O1790   1.918       .  S
Zn1787     O1792   2.044       .  S
Zn1787     O1794   2.003       .  S
Zn1787     O1798   2.015       .  S
Zn1788     O1790   1.919       .  S
Zn1788     O1793   2.014       .  S
Zn1788     O1796   2.002       .  S
Zn1788     O1799   2.045       .  S
Zn1789     O1790   1.918       .  S
Zn1789     O1797   2.003       .  S
Zn1789     O1800   2.015       .  S
Zn1789     O1801   2.044       .  S
O1791      C1803   1.277       .  A
O1792      C1804   1.277       .  A
O1793      C1805   1.277       .  A
O1794      C1803   1.270       .  A
O1795      C1805   1.277       .  A
O1796      C1804   1.270       .  A
O1797      C1806   1.270       .  A
O1798      C1807   1.277       .  A
O1799      C1806   1.277       .  A
O1800      C1807   1.277       .  A
O1801      C1808   1.277       .  A
O1802      C1808   1.270       .  A
C1803      C1839   1.439       .  S
C1804      C1823   1.438       .  S
C1805      C1812   1.430       .  S
C1806      C1837   1.439       .  S
C1807      C1810   1.430       .  S
C1808      C1822   1.438       .  S
C1809      C1810   1.203       .  T
C1811      C1812   1.203       .  T
C1817      C1818   1.203       .  T
C1819      C1820   1.203       .  T
C1823      C1824   1.208       .  T
C1825      C1826   1.208       .  T
C1827      C1828   1.208       .  T
C1829      C1830   1.203       .  T
C1831      C1832   1.203       .  T
C1833      C1834   1.208       .  T
C1835      C1836   1.208       .  T
C1837      C1838   1.208       .  T
C1839      C1840   1.208       .  T
C1845      C1846   1.203       .  T
C1847      C1848   1.203       .  T
C1849      C1850   1.208       .  T
C1851      C1852   1.208       .  T
C1855      C1856   1.208   1_455  T
