geometry optimzed in LAMMPS
_audit_creation_date              2020-11-30 
_audit_creation_method            'lammps2cif' 
_symmetry_space_group_name_H-M    'P1' 
_symmetry_Int_Tables_number       1 
_symmetry_cell_setting            triclinic 
loop_ 
_symmetry_equiv_pos_as_xyz 
  x,y,z 
_cell_length_a                    47.99901526 
_cell_length_b                    48.224296839818635 
_cell_length_c                    48.20808724172473 
_cell_angle_alpha                 90.45911485139875 
_cell_angle_beta                  90.31556565942401 
_cell_angle_gamma                 90.34878471453061 
loop_ 
_atom_site_label 
_atom_site_type_symbol 
_atom_site_fract_x 
_atom_site_fract_y 
_atom_site_fract_z 
_atom_site_charge 
In1        In  0.61732879  0.47277289  0.99798053     1.36900
C2          C  0.57221534  0.50209778  0.99422590     0.77600
O3          O  0.60261283  0.47517567  0.04091718    -0.60800
O4          O  0.64254039  0.49317761  0.03316345    -0.51700
C5          C  0.62702372  0.41954262  0.00254542     0.70300
O6          O  0.60299003  0.42992645  0.00253417    -0.46600
C7          C  0.62585766  0.48457959  0.94510955     0.75000
O8          O  0.57143218  0.47582877  0.99403859    -0.58400
O9          O  0.64376516  0.49186225  0.96340954    -0.48500
O10         O  0.59634218  0.51277816  0.99643146    -0.54900
C11         C  0.62321632  0.48836443  0.05052778     0.85200
O12         O  0.64697224  0.43646892  0.99934466    -0.56700
O13         O  0.60610676  0.46992988  0.95397217    -0.60000
In14       In  0.40174747  0.69427165  0.99891713     1.36900
C15         C  0.34784173  0.70398126  0.99778436     0.77600
O16         O  0.40140230  0.67972508  0.04197294    -0.60800
O17         O  0.41872507  0.71993862  0.03569667    -0.51700
C18         C  0.42879942  0.64767628  0.99771448     0.70300
O19         O  0.40252924  0.64839454  0.99572558    -0.46600
C20         C  0.41768295  0.70384818  0.94729403     0.75000
O21         O  0.35838705  0.68020894  0.99578148    -0.58400
O22         O  0.42557099  0.72016638  0.96672220    -0.48500
O23         O  0.36506250  0.72377377  0.00069917    -0.54900
C24         C  0.41305769  0.70065362  0.05268877     0.85200
O25         O  0.44115833  0.67085712  0.00003465    -0.56700
O26         O  0.40058339  0.68545720  0.95443110    -0.60000
In27       In  0.43219174  0.29829489  0.99388770     1.36900
C28         C  0.48585388  0.30792685  0.99520109     0.77600
O29         O  0.42686621  0.31668886  0.03474530    -0.60800
O30         O  0.42803209  0.27228633  0.03320456    -0.51700
C31         C  0.38412687  0.32078802  0.98983983     0.70300
O32         O  0.40662204  0.33473795  0.99118751    -0.46600
C33         C  0.42864130  0.29499182  0.93974554     0.75000
O34         O  0.46746342  0.32653184  0.99610764    -0.58400
O35         O  0.42555964  0.27308858  0.95433569    -0.48500
O36         O  0.47649431  0.28318879  0.99436580    -0.54900
C37         C  0.42621945  0.29431313  0.04806032     0.85200
O38         O  0.38622073  0.29451238  0.99116084    -0.56700
O39         O  0.43511236  0.31675589  0.95307931    -0.60000
In40       In  0.22917168  0.51954707  0.00694322     1.36900
C41         C  0.25309862  0.47236998  0.00737035     0.77600
O42         O  0.24715275  0.51781652  0.04873736    -0.60800
O43         O  0.20326676  0.50896451  0.04448459    -0.51700
C44         C  0.23078879  0.57329505  0.01234454     0.70300
O45         O  0.25239002  0.55841072  0.01061402    -0.46600
C46         C  0.22656854  0.51336802  0.95260539     0.75000
O47         O  0.26670409  0.49509316  0.00739738    -0.58400
O48         O  0.20458805  0.51144360  0.96736089    -0.48500
O49         O  0.22663284  0.47408852  0.00649882    -0.54900
C50         C  0.22476404  0.51030655  0.06029593     0.85200
O51         O  0.20763071  0.56060760  0.00955216    -0.56700
O52         O  0.24850892  0.52021699  0.96570510    -0.60000
In53       In  0.44271315  0.99581371  0.69726235     1.36900
C54         C  0.39424737  0.99155028  0.67553118     0.77600
O55         O  0.44447726  0.95444278  0.67828558    -0.60800
O56         O  0.43550184  0.95652949  0.72195927    -0.51700
C57         C  0.49641317  0.99847388  0.69314722     0.70300
O58         O  0.48016243  0.99744654  0.67237611    -0.46600
C59         C  0.43441862  0.04985189  0.69925765     0.75000
O60         O  0.41627139  0.99309969  0.66108787    -0.58400
O61         O  0.43431166  0.03555575  0.72152065    -0.48500
O62         O  0.39726773  0.99313086  0.70178830    -0.54900
C63         C  0.43763495  0.94156376  0.70000919     0.85200
O64         O  0.48511585  0.99783841  0.71695171    -0.56700
O65         O  0.43972381  0.03640106  0.67729304    -0.60000
In66       In  0.62565019  0.99930125  0.48693171     1.36900
C67         C  0.60925972  0.99796184  0.53785043     0.77600
O68         O  0.60503928  0.95878586  0.48535818    -0.60800
O69         O  0.64970254  0.95960228  0.49092779    -0.51700
C70         C  0.62180010  0.00049380  0.43358178     0.70300
O71         O  0.60071817  0.99973049  0.44935261    -0.46600
C72         C  0.62754322  0.05340069  0.49040608     0.75000
O73         O  0.59248962  0.99846714  0.51736616    -0.58400
O74         O  0.64986869  0.03916166  0.49242856    -0.48500
O75         O  0.63510055  0.99865782  0.53184595    -0.54900
C76         C  0.62722605  0.94522645  0.48937136     0.85200
O77         O  0.64566976  0.00032712  0.44525677    -0.56700
O78         O  0.60533468  0.03963472  0.48611114    -0.60000
In79       In  0.41522895  0.00283827  0.30174998     1.36900
C80         C  0.36140865  0.00185103  0.30222870     0.77600
O81         O  0.41283646  0.04405273  0.32187614    -0.60800
O82         O  0.41966119  0.04283467  0.27780211    -0.51700
C83         C  0.46622356  0.00239428  0.31989616     0.70300
O84         O  0.44528519  0.00236787  0.33595542    -0.46600
C85         C  0.41742099  0.94835700  0.29830962     0.75000
O86         O  0.37599772  0.00207304  0.32433444    -0.58400
O87         O  0.41998938  0.96327148  0.27661869    -0.48500
O88         O  0.37456198  0.00210945  0.27937893    -0.54900
C89         C  0.41683377  0.05759411  0.29976764     0.85200
O90         O  0.46056788  0.00280850  0.29402245    -0.56700
O91         O  0.41335866  0.96163338  0.32075614    -0.60000
In92       In  0.22356179  0.00205285  0.49588310     1.36900
C93         C  0.24199499  0.00276574  0.54582518     0.77600
O94         O  0.24110005  0.04368121  0.49756155    -0.60800
O95         O  0.19641709  0.04058592  0.49823049    -0.51700
C96         C  0.23643329  0.00134372  0.44351569     0.70300
O97         O  0.25416785  0.00198198  0.46307652    -0.46600
C98         C  0.22001087  0.94795195  0.49841391     0.75000
O99         O  0.25779219  0.00322564  0.52482163    -0.58400
O100        O  0.19788733  0.96266609  0.49860141    -0.48500
O101        O  0.21587149  0.00185406  0.54122255    -0.54900
C102        C  0.21809257  0.05618549  0.49875485     0.85200
O103        O  0.21109277  0.00118588  0.45106621    -0.56700
O104        O  0.24266694  0.96124980  0.49661196    -0.60000
In105      In  0.92930615  0.50975348  0.71141106     1.36900
C106        C  0.92634080  0.56306159  0.71043540     0.77600
O107        O  0.89040129  0.51060828  0.68708706    -0.60800
O108        O  0.88786937  0.50810195  0.73180871    -0.51700
C109        C  0.92820258  0.45626186  0.70556423     0.70300
O110        O  0.92938405  0.47279047  0.68516484    -0.46600
C111        C  0.98383121  0.51093814  0.70864456     0.75000
O112        O  0.92735296  0.54810540  0.68861401    -0.58400
O113        O  0.97133129  0.50990822  0.73195661    -0.48500
O114        O  0.92765407  0.55055544  0.73365939    -0.54900
C115        C  0.87508767  0.50893636  0.70848704     0.85200
O116        O  0.92799137  0.46727827  0.72973406    -0.56700
O117        O  0.96813966  0.51155838  0.68732456    -0.60000
In118      In  0.92096639  0.68796469  0.50302297     1.36900
C119        C  0.92208100  0.67169245  0.55508581     0.77600
O120        O  0.96369842  0.67387595  0.49974405    -0.60800
O121        O  0.95791813  0.71789322  0.50269807    -0.51700
C122        C  0.91832297  0.67176332  0.45108115     0.70300
O123        O  0.92006624  0.65515226  0.47126598    -0.46600
C124        C  0.86702506  0.69518345  0.50352324     0.75000
O125        O  0.92222591  0.65497990  0.53465693    -0.58400
O126        O  0.88339856  0.71618969  0.50318769    -0.48500
O127        O  0.92165261  0.69714401  0.54852258    -0.54900
C128        C  0.97485319  0.69763673  0.50087550     0.85200
O129        O  0.91797540  0.69729093  0.45780504    -0.56700
O130        O  0.87872187  0.67179745  0.50396151    -0.60000
In131      In  0.92161428  0.50324796  0.30334766     1.36900
C132        C  0.92105439  0.55680345  0.30307165     0.77600
O133        O  0.96255487  0.50629275  0.32323988    -0.60800
O134        O  0.96107294  0.49792847  0.27915954    -0.51700
C135        C  0.92211231  0.45312590  0.32280299     0.70300
O136        O  0.92144043  0.47460928  0.33831035    -0.46600
C137        C  0.86727212  0.50280288  0.29934175     0.75000
O138        O  0.92151390  0.54284361  0.32534344    -0.58400
O139        O  0.88240542  0.49901132  0.27789790    -0.48500
O140        O  0.92174779  0.54316380  0.28038508    -0.54900
C141        C  0.97585703  0.50131221  0.30110809     0.85200
O142        O  0.92184131  0.45767124  0.29681097    -0.56700
O143        O  0.88030519  0.50639968  0.32206054    -0.60000
In144      In  0.92030563  0.30908531  0.50527790     1.36900
C145        C  0.91704731  0.32982149  0.55569074     0.77600
O146        O  0.87983747  0.32812865  0.49792006    -0.60800
O147        O  0.88056220  0.28405328  0.50539791    -0.51700
C148        C  0.92336417  0.31001337  0.45206247     0.70300
O149        O  0.92302526  0.33196249  0.46688161    -0.46600
C150        C  0.97476694  0.30524792  0.50625361     0.75000
O151        O  0.91864037  0.34455385  0.53405347    -0.58400
O152        O  0.95947270  0.28371767  0.50961574    -0.48500
O153        O  0.91741437  0.30371646  0.55130908    -0.54900
C154        C  0.86618338  0.30567683  0.50016695     0.85200
O155        O  0.92168915  0.28697270  0.46466708    -0.56700
O156        O  0.96182666  0.32785990  0.50318399    -0.60000
C157        C  0.79601928  0.50040929  0.72052759     0.86600
C158        C  0.78928011  0.52439323  0.70072322    -0.53700
C159        C  0.80623102  0.52612398  0.67820885     0.09500
C160        C  0.82929762  0.50412452  0.67780621     0.20400
C161        C  0.79702956  0.47410233  0.70210249    -0.54400
C162        C  0.81407547  0.47593098  0.67941871     0.09600
C163        C  0.82710604  0.50521379  0.72827995    -0.53900
C164        C  0.84439708  0.50708169  0.70594984     0.10200
H165        H  0.77208024  0.53855788  0.70404268     0.14700
H166        H  0.84320598  0.50659496  0.65982861     0.00400
H167        H  0.78479759  0.45566602  0.70655784     0.15000
H168        H  0.83560362  0.50590010  0.74907053     0.14800
C169        C  0.64233637  0.49864949  0.86806259     0.86600
C170        C  0.62207657  0.47465324  0.86056171    -0.53700
C171        C  0.59921166  0.47293300  0.87717947     0.09500
C172        C  0.59818420  0.49567586  0.89956500     0.20400
C173        C  0.62320441  0.52448617  0.86693771    -0.54400
C174        C  0.60044664  0.52319962  0.88378331     0.09600
C175        C  0.64897015  0.49514121  0.89932980    -0.53900
C176        C  0.62587493  0.49290730  0.91560333     0.10200
H177        H  0.62613480  0.45963637  0.84420902     0.14700
H178        H  0.57942124  0.49431128  0.91291076     0.00400
H179        H  0.62590135  0.54202744  0.85338488     0.15000
H180        H  0.66996120  0.49282623  0.90745881     0.14800
C181        C  0.42723694  0.86288442  0.71282052     0.86600
C182        C  0.40082096  0.86208106  0.69400817    -0.53700
C183        C  0.40200786  0.87924597  0.67166720     0.09500
C184        C  0.42923393  0.89619286  0.67016410     0.20400
C185        C  0.45121820  0.85702174  0.69234619    -0.54400
C186        C  0.45271830  0.87475556  0.67035781     0.09600
C187        C  0.42998959  0.89403494  0.72061822    -0.53900
C188        C  0.43201801  0.91127958  0.69837085     0.10200
H189        H  0.38239672  0.84958241  0.69736099     0.14700
H190        H  0.42995122  0.91026752  0.65207409     0.00400
H191        H  0.46512129  0.83957614  0.69474555     0.15000
H192        H  0.43023945  0.90181248  0.74177883     0.14800
C193        C  0.43317747  0.71927505  0.87044822     0.86600
C194        C  0.45818894  0.69903310  0.86938338    -0.53700
C195        C  0.45522073  0.67604783  0.88531076     0.09500
C196        C  0.42845273  0.67591870  0.90243801     0.20400
C197        C  0.40752531  0.70050545  0.86415754    -0.54400
C198        C  0.40481164  0.67811800  0.88123186     0.09600
C199        C  0.43113396  0.72643468  0.90189672    -0.53900
C200        C  0.42776965  0.70366570  0.91834568     0.10200
H201        H  0.47708794  0.70190961  0.85764147     0.14700
H202        H  0.42667311  0.65755519  0.91611865     0.00400
H203        H  0.39334431  0.70443426  0.84708666     0.15000
H204        H  0.43120051  0.74725818  0.91038980     0.14800
C205        C  0.78908507  0.71469016  0.50333079     0.86600
C206        C  0.78324505  0.69459794  0.47875680    -0.53700
C207        C  0.79916931  0.67122535  0.47868811     0.09500
C208        C  0.81884273  0.66950981  0.50375529     0.20400
C209        C  0.78447080  0.69600267  0.52904587    -0.54400
C210        C  0.79983907  0.67226826  0.52905043     0.09600
C211        C  0.82081594  0.72003637  0.50301803    -0.53900
C212        C  0.83628450  0.69639140  0.50334783     0.10200
H213        H  0.76797039  0.69860520  0.46261158     0.14700
H214        H  0.83175500  0.65055546  0.50374282     0.00400
H215        H  0.76983953  0.70004394  0.54555398     0.15000
H216        H  0.83007585  0.74062937  0.50268176     0.14800
C217        C  0.64103270  0.86629236  0.49430241     0.86600
C218        C  0.62199868  0.86403262  0.51986728    -0.53700
C219        C  0.59923224  0.88078400  0.51913029     0.09500
C220        C  0.59784983  0.89916298  0.49332429     0.20400
C221        C  0.62146953  0.86191961  0.46905693    -0.54400
C222        C  0.59882057  0.87903017  0.46849750     0.09600
C223        C  0.64852320  0.89774290  0.49300136    -0.53900
C224        C  0.62586949  0.91471973  0.49231885     0.10200
H225        H  0.62567081  0.84957086  0.53663743     0.14700
H226        H  0.57944786  0.91300942  0.49317923     0.00400
H227        H  0.62477288  0.84562345  0.45387914     0.15000
H228        H  0.66924138  0.90648959  0.49174292     0.14800
C229        C  0.41975099  0.13662317  0.28425709     0.86600
C230        C  0.39560479  0.14178705  0.30491331    -0.53700
C231        C  0.39518333  0.12465239  0.32732660     0.09500
C232        C  0.42014312  0.10480012  0.32812384     0.20400
C233        C  0.44569478  0.14036894  0.30303384    -0.54400
C234        C  0.44626652  0.12353382  0.32576290     0.09600
C235        C  0.41810719  0.10512192  0.27769439    -0.53900
C236        C  0.41841301  0.08848259  0.30055083     0.10200
H237        H  0.38132352  0.15887654  0.30382001     0.14700
H238        H  0.42020148  0.09147190  0.34675893     0.00400
H239        H  0.46232522  0.15501070  0.29857381     0.15000
H240        H  0.41675591  0.09684125  0.25671714     0.14800
C241        C  0.42505203  0.28144642  0.12758367     0.86600
C242        C  0.44933880  0.30279242  0.13058811    -0.53700
C243        C  0.44777106  0.32496803  0.11322853     0.09500
C244        C  0.42206584  0.32383021  0.09401305     0.20400
C245        C  0.39870406  0.29924493  0.13100419    -0.54400
C246        C  0.39662092  0.32111934  0.11324835     0.09600
C247        C  0.42606799  0.27344479  0.09633232    -0.53900
C248        C  0.42419646  0.29557686  0.07880350     0.10200
H249        H  0.46723285  0.30072554  0.14409974     0.14700
H250        H  0.42064472  0.34193589  0.08003999     0.00400
H251        H  0.38371750  0.29536482  0.14726529     0.15000
H252        H  0.42847246  0.25229408  0.08888544     0.14800
C253        C  0.05446414  0.49806280  0.28541997     0.86600
C254        C  0.05964543  0.52342862  0.30474352    -0.53700
C255        C  0.04305350  0.52424402  0.32773051     0.09500
C256        C  0.02289139  0.49957977  0.32945965     0.20400
C257        C  0.05799489  0.47303539  0.30531752    -0.54400
C258        C  0.04174362  0.47405974  0.32851758     0.09600
C259        C  0.02303917  0.49848914  0.27886833    -0.53900
C260        C  0.00656953  0.49950127  0.30183705     0.10200
H261        H  0.07490562  0.53950087  0.30042455     0.14700
H262        H  0.00953594  0.50020880  0.34818744     0.00400
H263        H  0.07213671  0.45605164  0.30200237     0.15000
H264        H  0.01467162  0.49850796  0.25789320     0.14800
C265        C  0.20848508  0.49898348  0.13797967     0.86600
C266        C  0.22511408  0.47163482  0.13856839    -0.53700
C267        C  0.24831814  0.47150227  0.12224119     0.09500
C268        C  0.25244070  0.49865087  0.10598015     0.20400
C269        C  0.23011268  0.52200478  0.14453491    -0.54400
C270        C  0.25327600  0.52195828  0.12799632     0.09600
C271        C  0.20198312  0.50311393  0.10658591    -0.53900
C272        C  0.22499457  0.50336986  0.09016333     0.10200
H273        H  0.21944532  0.45415785  0.15148113     0.14700
H274        H  0.27073498  0.49839381  0.09206507     0.00400
H275        H  0.22695585  0.53732417  0.16082968     0.15000
H276        H  0.18172061  0.50655167  0.09746659     0.14800
C277        C  0.05340967  0.28797853  0.50694234     0.86600
C278        C  0.05926178  0.30861808  0.48310437    -0.53700
C279        C  0.04290729  0.33180467  0.48321669     0.09500
C280        C  0.02243322  0.33248967  0.50755488     0.20400
C281        C  0.05660406  0.30638360  0.53339848    -0.54400
C282        C  0.04085238  0.32986450  0.53351536     0.09600
C283        C  0.02180605  0.28193568  0.50550181    -0.53900
C284        C  0.00565302  0.30517127  0.50602294     0.10200
H285        H  0.07503319  0.30510809  0.46742727     0.14700
H286        H  0.00888523  0.35097181  0.50747577     0.00400
H287        H  0.06958045  0.30173667  0.55091369     0.15000
H288        H  0.01308896  0.26111857  0.50458097     0.14800
C289        C  0.20210123  0.13519499  0.49934525     0.86600
C290        C  0.22124063  0.13925067  0.52492677    -0.53700
C291        C  0.24425170  0.12286612  0.52508310     0.09500
C292        C  0.24595828  0.10320022  0.49993609     0.20400
C293        C  0.22124448  0.13817843  0.47381581    -0.54400
C294        C  0.24422824  0.12164670  0.47413090     0.09600
C295        C  0.19510750  0.10351881  0.49962481    -0.53900
C296        C  0.21818434  0.08694486  0.49998501     0.10200
H297        H  0.21693061  0.15398217  0.54149441     0.14700
H298        H  0.26488729  0.09006581  0.50031680     0.00400
H299        H  0.21701182  0.15242177  0.45699136     0.15000
H300        H  0.17445456  0.09446744  0.49891619     0.14800
C301        C  0.21269293  0.50443562  0.87359967     0.86600
C302        C  0.23325920  0.52860483  0.86923650    -0.53700
C303        C  0.25609805  0.52837011  0.88623188     0.09500
C304        C  0.25581962  0.50440996  0.90712703     0.20400
C305        C  0.23036353  0.47801442  0.87214000    -0.54400
C306        C  0.25288362  0.47747321  0.88956508     0.09600
C307        C  0.20509497  0.50718217  0.90489764    -0.53900
C308        C  0.22775983  0.50771149  0.92228294     0.10200
H309        H  0.22956511  0.54489444  0.85427456     0.14700
H310        H  0.27417381  0.50456752  0.92124315     0.00400
H311        H  0.22586768  0.46150700  0.85731690     0.15000
H312        H  0.18435163  0.50990696  0.91306081     0.14800
C313        C  0.06373126  0.50937053  0.71935791     0.86600
C314        C  0.06613084  0.48510579  0.69828265    -0.53700
C315        C  0.04763711  0.48592412  0.67637505     0.09500
C316        C  0.02892537  0.51188336  0.67736865     0.20400
C317        C  0.06764414  0.53506213  0.70073925    -0.54400
C318        C  0.04955357  0.53644462  0.67906557     0.09600
C319        C  0.03276628  0.50989581  0.72770196    -0.53900
C320        C  0.01460731  0.51108848  0.70584238     0.10200
H321        H  0.08126863  0.46865009  0.70063414     0.14700
H322        H  0.01367974  0.51323472  0.66008880     0.00400
H323        H  0.08429206  0.55020264  0.70260811     0.15000
H324        H  0.02590244  0.50910139  0.74911023     0.14800
C325        C  0.20470147  0.86904896  0.49915211     0.86600
C326        C  0.22432273  0.86590797  0.47412745    -0.53700
C327        C  0.24757178  0.88232074  0.47536574     0.09500
C328        C  0.24844336  0.90158182  0.50089410     0.20400
C329        C  0.22353005  0.86525789  0.52491990    -0.54400
C330        C  0.24648055  0.88232205  0.52624483     0.09600
C331        C  0.19778642  0.90054939  0.49932221    -0.53900
C332        C  0.22069370  0.91734979  0.50002993     0.10200
H333        H  0.21997589  0.85194927  0.45684336     0.14700
H334        H  0.26687668  0.91554831  0.50119606     0.00400
H335        H  0.21945500  0.84906581  0.53973044     0.15000
H336        H  0.17728658  0.90954119  0.49783066     0.14800
C337        C  0.05281708  0.71908386  0.49728131     0.86600
C338        C  0.05974552  0.70158181  0.52307513    -0.53700
C339        C  0.04394593  0.67812745  0.52588295     0.09500
C340        C  0.02347411  0.67351574  0.50154785     0.20400
C341        C  0.05673460  0.69805723  0.47310433    -0.54400
C342        C  0.04088235  0.67465093  0.47514663     0.09600
C343        C  0.02091495  0.72385201  0.49841039    -0.53900
C344        C  0.00564284  0.69989572  0.50049001     0.10200
H345        H  0.07549660  0.70767022  0.53820701     0.14700
H346        H  0.01146894  0.65389027  0.50277137     0.00400
H347        H  0.07088724  0.70046058  0.45589116     0.15000
H348        H  0.01144553  0.74419773  0.49725627     0.14800
C349        C  0.41939948  0.86925769  0.28221345     0.86600
C350        C  0.44410990  0.86510536  0.30232618    -0.53700
C351        C  0.44387753  0.88207248  0.32511752     0.09500
C352        C  0.41880283  0.90164045  0.32609537     0.20400
C353        C  0.39384733  0.86507892  0.30151865    -0.54400
C354        C  0.39328659  0.88245247  0.32408787     0.09600
C355        C  0.41933892  0.90067439  0.27561248    -0.53900
C356        C  0.41898723  0.91755855  0.29858474     0.10200
H357        H  0.46027961  0.84979296  0.29901424     0.14700
H358        H  0.41879064  0.91523891  0.34480285     0.00400
H359        H  0.37887200  0.84838768  0.29948560     0.15000
H360        H  0.41916643  0.90868326  0.25463086     0.14800
C361        C  0.42492322  0.71800886  0.13076785     0.86600
C362        C  0.39911762  0.69989312  0.13705063    -0.53700
C363        C  0.39641278  0.67691386  0.12072042     0.09500
C364        C  0.41978147  0.67372744  0.09937257     0.20400
C365        C  0.45010110  0.69826091  0.13186592    -0.54400
C366        C  0.44732458  0.67475917  0.11603152     0.09600
C367        C  0.42197074  0.72427799  0.09914307    -0.53900
C368        C  0.41921362  0.70097640  0.08289716     0.10200
H369        H  0.38414939  0.70495353  0.15311013     0.14700
H370        H  0.41734941  0.65490031  0.08622458     0.00400
H371        H  0.46846067  0.70239924  0.14454232     0.15000
H372        H  0.42116524  0.74463782  0.08996962     0.14800
C373        C  0.78853362  0.50303547  0.28100597     0.86600
C374        C  0.78413870  0.47732431  0.29946989    -0.53700
C375        C  0.80010348  0.47699767  0.32300761     0.09500
C376        C  0.81941174  0.50242270  0.32592771     0.20400
C377        C  0.78480580  0.52836940  0.30029317    -0.54400
C378        C  0.80025046  0.52778918  0.32416174     0.09600
C379        C  0.82042922  0.50291134  0.27535635    -0.53900
C380        C  0.83642413  0.50281124  0.29892277     0.10200
H381        H  0.76939440  0.46085970  0.29437442     0.14700
H382        H  0.83221618  0.50211200  0.34517721     0.00400
H383        H  0.77146239  0.54559106  0.29490620     0.15000
H384        H  0.83012080  0.50291820  0.25517524     0.14800
C385        C  0.63925543  0.50109003  0.12788976     0.86600
C386        C  0.62125511  0.52751686  0.13007942    -0.53700
C387        C  0.59864927  0.52781526  0.11264622     0.09500
C388        C  0.59537503  0.50085192  0.09548831     0.20400
C389        C  0.61774401  0.47763815  0.13385137    -0.54400
C390        C  0.59487688  0.47752476  0.11689074     0.09600
C391        C  0.64604606  0.49769274  0.09679483    -0.53900
C392        C  0.62311384  0.49710937  0.07997790     0.10200
H393        H  0.62586632  0.54446576  0.14436472     0.14700
H394        H  0.57694012  0.50026389  0.08158774     0.00400
H395        H  0.61942639  0.46274205  0.15045487     0.15000
H396        H  0.66695276  0.49411009  0.08911309     0.14800
C397        C  0.42244027  0.28263691  0.86056671     0.86600
C398        C  0.39782507  0.30331824  0.85819346    -0.53700
C399        C  0.39965582  0.32549687  0.87576899     0.09500
C400        C  0.42550972  0.32504768  0.89466162     0.20400
C401        C  0.44848515  0.30122998  0.85678701    -0.54400
C402        C  0.45043550  0.32305377  0.87501534     0.09600
C403        C  0.42241203  0.27462957  0.89161923    -0.53900
C404        C  0.42481578  0.29673784  0.90933127     0.10200
H405        H  0.37997558  0.30136697  0.84459017     0.14700
H406        H  0.42665117  0.34312626  0.90905248     0.00400
H407        H  0.46363994  0.29758308  0.84057898     0.15000
H408        H  0.42183309  0.25334836  0.89879393     0.14800
C409        C  0.42602491  0.12900923  0.71137983     0.86600
C410        C  0.44811104  0.13391147  0.68859300    -0.53700
C411        C  0.44731958  0.11530301  0.66723233     0.09500
C412        C  0.42339297  0.09413840  0.66948476     0.20400
C413        C  0.39855447  0.13004080  0.69476650    -0.54400
C414        C  0.39645675  0.11148903  0.67311948     0.09600
C415        C  0.42995613  0.09824003  0.71949204    -0.53900
C416        C  0.42862674  0.08005582  0.69763252     0.10200
H417        H  0.46303937  0.15069992  0.68804625     0.14700
H418        H  0.42270510  0.07920255  0.65188212     0.00400
H419        H  0.38267679  0.14532714  0.69924501     0.15000
H420        H  0.43428972  0.09166570  0.74056138     0.14800
C421        C  0.78733739  0.28923202  0.49905996     0.86600
C422        C  0.78427733  0.30829929  0.52490885    -0.53700
C423        C  0.80205143  0.33079865  0.52571546     0.09500
C424        C  0.81935262  0.33339244  0.49897549     0.20400
C425        C  0.78179021  0.30938434  0.47476807    -0.54400
C426        C  0.79830476  0.33238401  0.47468958     0.09600
C427        C  0.81880042  0.28290765  0.49740775    -0.53900
C428        C  0.83545315  0.30595805  0.49774107     0.10200
H429        H  0.76905301  0.30411244  0.54078579     0.14700
H430        H  0.83324152  0.35180798  0.49834020     0.00400
H431        H  0.76550358  0.30716125  0.45932142     0.15000
H432        H  0.82710051  0.26200880  0.49720047     0.14800
C433        C  0.64140946  0.13235387  0.49923677     0.86600
C434        C  0.62287574  0.13811308  0.47366902    -0.53700
C435        C  0.60038129  0.12086156  0.47080825     0.09500
C436        C  0.59826665  0.09926063  0.49389102     0.20400
C437        C  0.62143490  0.13261334  0.52422745    -0.54400
C438        C  0.59859826  0.11573208  0.52135695     0.09600
C439        C  0.64898398  0.10110737  0.49611364    -0.53900
C440        C  0.62630625  0.08395945  0.49327089     0.10200
H441        H  0.62676086  0.15525324  0.45974873     0.14700
H442        H  0.57972418  0.08570346  0.49118323     0.00400
H443        H  0.62479726  0.14566123  0.54242546     0.15000
H444        H  0.66977816  0.09264002  0.49647621     0.14800
C445        C  0.74900209  0.22232203  0.52405481    -0.22400
C446        C  0.73097279  0.21662711  0.50177385     0.09600
C447        C  0.73323260  0.23260409  0.47758088     0.10000
C448        C  0.75220822  0.25487906  0.47678446    -0.17300
C449        C  0.76903920  0.26250381  0.49986999    -0.27700
C450        C  0.76847150  0.24436140  0.52321408     0.18300
C451        C  0.70930666  0.19439577  0.50401446     0.12300
C452        C  0.71566209  0.22596294  0.45231438    -0.12100
H453        H  0.75385772  0.26566799  0.45743208     0.12600
C454        C  0.78804533  0.24688080  0.54769135    -0.22900
H455        H  0.74790219  0.20940339  0.54232948     0.08200
C456        C  0.71539949  0.16609965  0.50019826     0.04500
C457        C  0.69353764  0.14640211  0.49956283    -0.20200
C458        C  0.66520735  0.15414103  0.50206588    -0.12400
C459        C  0.65953442  0.18303866  0.50604672     0.13200
C460        C  0.68159871  0.20230098  0.50752015    -0.22900
C461        C  0.74497957  0.15679413  0.49587542    -0.05900
H462        H  0.69917969  0.12511466  0.49612734     0.14800
C463        C  0.63069642  0.19534414  0.50808422    -0.16100
H464        H  0.67700515  0.22415036  0.51026333     0.09100
H465        H  0.79901493  0.22689307  0.55060565     0.07000
H466        H  0.77599538  0.25161915  0.56672015     0.08200
H467        H  0.80432888  0.26285021  0.54528422     0.07200
H468        H  0.69324601  0.22826555  0.45727721     0.02100
H469        H  0.71960491  0.20432823  0.44539876     0.02600
H470        H  0.72042732  0.23996201  0.43476586     0.06100
H471        H  0.74630609  0.13400423  0.49270424     0.05000
H472        H  0.75783559  0.16241685  0.51430625    -0.00700
H473        H  0.75375526  0.16704074  0.47728918     0.00800
H474        H  0.62831818  0.20559622  0.52863584     0.04400
H475        H  0.61333528  0.18051131  0.50546713     0.06400
H476        H  0.62809396  0.21119165  0.49169404     0.07200
C477        C  0.51776119  0.11405892  0.63089320    -0.22400
C478        C  0.50979800  0.11585993  0.60300610     0.09600
C479        C  0.48121168  0.11657011  0.59603614     0.10000
C480        C  0.46123299  0.11640472  0.61730508    -0.17300
C481        C  0.46914771  0.11475268  0.64531877    -0.27700
C482        C  0.49787072  0.11289448  0.65212666     0.18300
C483        C  0.53193463  0.11622127  0.58156551     0.12300
C484        C  0.47183913  0.11734075  0.56618906    -0.12100
H485        H  0.43942765  0.11805537  0.61200770     0.12600
C486        C  0.50772860  0.10863492  0.68157556    -0.22900
H487        H  0.53975502  0.11358317  0.63598822     0.08200
C488        C  0.54306142  0.14124780  0.57133798     0.04500
C489        C  0.56443835  0.14039878  0.55149216    -0.20200
C490        C  0.57556439  0.11508576  0.54214041    -0.12400
C491        C  0.56506375  0.09008307  0.55340451     0.13200
C492        C  0.54316050  0.09099694  0.57265113    -0.22900
C493        C  0.53283171  0.16881479  0.58189990    -0.05900
H494        H  0.57263729  0.15964889  0.54332538     0.14800
C495        C  0.57765910  0.06242355  0.54666861    -0.16100
H496        H  0.53491344  0.07190012  0.58113635     0.09100
H497        H  0.50318587  0.12701726  0.69463213     0.07000
H498        H  0.53057778  0.10546749  0.68272862     0.08200
H499        H  0.49735258  0.09006815  0.69038929     0.07200
H500        H  0.47952346  0.09867420  0.55505907     0.02100
H501        H  0.48021612  0.13614773  0.55600251     0.02600
H502        H  0.44876335  0.11766221  0.56433921     0.06100
H503        H  0.54392888  0.18638463  0.57199573     0.05000
H504        H  0.53634343  0.17031664  0.60465116    -0.00700
H505        H  0.51024901  0.17095017  0.57748674     0.00800
H506        H  0.60060749  0.06322517  0.54963412     0.04400
H507        H  0.57234658  0.05610110  0.52520771     0.06400
H508        H  0.56928121  0.04616610  0.56044228     0.07200
C509        C  0.44338207  0.21421740  0.82283270    -0.22400
C510        C  0.42334440  0.21213582  0.80171970     0.09600
C511        C  0.40240299  0.23236678  0.80013718     0.10000
C512        C  0.40216003  0.25433132  0.81945541    -0.17300
C513        C  0.42261845  0.25727933  0.84059205    -0.27700
C514        C  0.44381458  0.23655567  0.84181253     0.18300
C515        C  0.42572052  0.18979144  0.78028211     0.12300
C516        C  0.38068708  0.23137982  0.77738443    -0.12100
H517        H  0.38603723  0.26937660  0.81682548     0.12600
C518        C  0.46792474  0.23696618  0.86211948    -0.22900
H519        H  0.45946842  0.19856964  0.82401619     0.08200
C520        C  0.44712851  0.19012944  0.76045610     0.04500
C521        C  0.44755185  0.16978513  0.73946091    -0.20200
C522        C  0.42648637  0.14919392  0.73666294    -0.12400
C523        C  0.40571948  0.14833764  0.75781176     0.13200
C524        C  0.40571620  0.16857467  0.77905186    -0.22900
C525        C  0.46926225  0.21251415  0.76085945    -0.05900
H526        H  0.46492095  0.17060960  0.72556973     0.14800
C527        C  0.38287075  0.12675180  0.75918767    -0.16100
H528        H  0.38960707  0.16799732  0.79473185     0.09100
H529        H  0.48782255  0.23679045  0.85047019     0.07000
H530        H  0.46695934  0.21815649  0.87522470     0.08200
H531        H  0.46876260  0.25516385  0.87605203     0.07200
H532        H  0.36788667  0.21225459  0.77915245     0.02100
H533        H  0.39100674  0.23163723  0.75682929     0.02600
H534        H  0.36635818  0.24934746  0.77844298     0.06100
H535        H  0.48378803  0.21052014  0.74310974     0.05000
H536        H  0.48181034  0.21128083  0.78018858    -0.00700
H537        H  0.45933895  0.23321276  0.75965879     0.00800
H538        H  0.38407763  0.11596935  0.77942488     0.04400
H539        H  0.38380666  0.11064518  0.74290513     0.06400
H540        H  0.36230018  0.13704228  0.75753318     0.07200
C541        C  0.81944273  0.42202742  0.37644934    -0.22400
C542        C  0.79331629  0.41475815  0.38708312     0.09600
C543        C  0.76925708  0.42767591  0.37624386     0.10000
C544        C  0.77205053  0.44755669  0.35511327    -0.17300
C545        C  0.79827500  0.45459241  0.34422830    -0.27700
C546        C  0.82216411  0.44096418  0.35467525     0.18300
C547        C  0.79215436  0.39299722  0.40895014     0.12300
C548        C  0.74064778  0.42023428  0.38657253    -0.12100
H549        H  0.75367464  0.45787997  0.34721832     0.12600
C550        C  0.85064370  0.44438331  0.34233230    -0.22900
H551        H  0.83790206  0.41197522  0.38455525     0.08200
C552        C  0.79950060  0.36520851  0.40317319     0.04500
C553        C  0.80205696  0.34623253  0.42509942    -0.20200
C554        C  0.79576552  0.35385077  0.45256601    -0.12400
C555        C  0.78531883  0.38084898  0.45768191     0.13200
C556        C  0.78491794  0.40037655  0.43614494    -0.22900
C557        C  0.80331393  0.35532057  0.37372040    -0.05900
H558        H  0.80855680  0.32516275  0.42072898     0.14800
C559        C  0.77263476  0.38936647  0.48486195    -0.16100
H560        H  0.77842838  0.42144123  0.44055182     0.09100
H561        H  0.86003720  0.42367103  0.33880598     0.07000
H562        H  0.86411574  0.45659059  0.35673990     0.08200
H563        H  0.84999735  0.45435942  0.32185565     0.07200
H564        H  0.73886224  0.42558354  0.40890500     0.02100
H565        H  0.73685475  0.39766757  0.38362302     0.02600
H566        H  0.72411484  0.43159658  0.37523255     0.06100
H567        H  0.80774012  0.33277086  0.37268800     0.05000
H568        H  0.82071137  0.36658680  0.36376625    -0.00700
H569        H  0.78392086  0.35908908  0.36170545     0.00800
H570        H  0.78428449  0.40733463  0.49372118     0.04400
H571        H  0.77210556  0.37232410  0.50005414     0.06400
H572        H  0.75073385  0.39577013  0.48127950     0.07200
C573        C  0.72036030  0.50313321  0.23700257    -0.22400
C574        C  0.73030223  0.50357936  0.20983365     0.09600
C575        C  0.75927571  0.50472608  0.20546126     0.10000
C576        C  0.77763268  0.50483570  0.22841606    -0.17300
C577        C  0.76795226  0.50362057  0.25610202    -0.27700
C578        C  0.73839054  0.50310554  0.26005691     0.18300
C579        C  0.70966385  0.50185183  0.18657725     0.12300
C580        C  0.77089567  0.50517525  0.17649084    -0.12100
H581        H  0.79955546  0.50579572  0.22405532     0.12600
C582        C  0.72422021  0.50231604  0.28797822    -0.22900
H583        H  0.69801780  0.50248018  0.24027990     0.08200
C584        C  0.69483510  0.47713523  0.18088118     0.04500
C585        C  0.67334387  0.47708091  0.16097812    -0.20200
C586        C  0.66568395  0.50128445  0.14649164    -0.12400
C587        C  0.68350822  0.52493042  0.14959303     0.13200
C588        C  0.70425738  0.52525862  0.17041476    -0.22900
C589        C  0.70190460  0.45060176  0.19562198    -0.05900
H590        H  0.66300028  0.45759740  0.15664132     0.14800
C591        C  0.68212887  0.55001511  0.13115257    -0.16100
H592        H  0.71649285  0.54394544  0.17392344     0.09100
H593        H  0.71125977  0.48322102  0.28930473     0.07000
H594        H  0.71043067  0.52060746  0.29012955     0.08200
H595        H  0.73834530  0.50249534  0.30602193     0.07200
H596        H  0.76374149  0.52401185  0.16554767     0.02100
H597        H  0.76371767  0.48647686  0.16484728     0.02600
H598        H  0.79403429  0.50536913  0.17655853     0.06100
H599        H  0.68897748  0.43288818  0.18806171     0.05000
H600        H  0.69827964  0.45295547  0.21821891    -0.00700
H601        H  0.72412095  0.44544585  0.19205054     0.00800
H602        H  0.67566376  0.56838711  0.14350202     0.04400
H603        H  0.66788081  0.54739239  0.11323013     0.06400
H604        H  0.70309213  0.55413358  0.12239329     0.07200
C605        C  0.48702717  0.60599724  0.11967278    -0.22400
C606        C  0.51405473  0.61429857  0.11238385     0.09600
C607        C  0.51893904  0.64242236  0.10575689     0.10000
C608        C  0.49678912  0.66148902  0.10685084    -0.17300
C609        C  0.46972822  0.65324817  0.11440821    -0.27700
C610        C  0.46498574  0.62508139  0.12120096     0.18300
C611        C  0.53689099  0.59325652  0.11281800     0.12300
C612        C  0.54763862  0.65251109  0.09821463    -0.12100
H613        H  0.50061151  0.68303271  0.10179471     0.12600
C614        C  0.43720890  0.61516326  0.13152290    -0.22900
H615        H  0.48330763  0.58444370  0.12477789     0.08200
C616        C  0.54665672  0.58175807  0.13793990     0.04500
C617        C  0.56685795  0.56069311  0.13727776    -0.20200
C618        C  0.57806549  0.55105110  0.11212858    -0.12400
C619        C  0.56963773  0.56387996  0.08716406     0.13200
C620        C  0.54875663  0.58432896  0.08776588    -0.22900
C621        C  0.53619381  0.59209301  0.16553584    -0.05900
H622        H  0.57371439  0.55144008  0.15653707     0.14800
C623        C  0.58375016  0.55737030  0.06009071    -0.16100
H624        H  0.54157513  0.59341182  0.06857500     0.09100
H625        H  0.43762045  0.59291048  0.13726622     0.07000
H626        H  0.42103714  0.61754269  0.11527358     0.08200
H627        H  0.43167043  0.62725089  0.15031708     0.07200
H628        H  0.55469525  0.64204349  0.07894663     0.02100
H629        H  0.56245470  0.64796376  0.11532848     0.02600
H630        H  0.54802740  0.67521974  0.09455520     0.06100
H631        H  0.54686194  0.58176409  0.18311395     0.05000
H632        H  0.51354066  0.58792708  0.16740242    -0.00700
H633        H  0.54008983  0.61475663  0.16743009     0.00800
H634        H  0.57784164  0.53640189  0.05255397     0.04400
H635        H  0.60671509  0.55876351  0.06271200     0.06400
H636        H  0.57783158  0.57239050  0.04388332     0.07200
C637        C  0.43024828  0.76026548  0.19974562    -0.22400
C638        C  0.42725360  0.78757472  0.19080608     0.09600
C639        C  0.42516634  0.79268696  0.16214453     0.10000
C640        C  0.42545531  0.77029864  0.14311389    -0.17300
C641        C  0.42733123  0.74239594  0.15184731    -0.27700
C642        C  0.43002389  0.73769677  0.18107259     0.18300
C643        C  0.42437494  0.81006204  0.21213692     0.12300
C644        C  0.42186032  0.82183456  0.15168121    -0.12100
H645        H  0.42346663  0.77519075  0.12147142     0.12600
C646        C  0.43201087  0.70940742  0.19426964    -0.22900
H647        H  0.43186388  0.75641503  0.22183760     0.08200
C648        C  0.39914440  0.81403001  0.22636050     0.04500
C649        C  0.39760795  0.83406505  0.24767709    -0.20200
C650        C  0.42092140  0.85029563  0.25600685    -0.12400
C651        C  0.44557139  0.84781887  0.23961966     0.13200
C652        C  0.44707876  0.82735159  0.21858012    -0.22900
C653        C  0.37363086  0.79709995  0.21888976    -0.05900
H654        H  0.37763794  0.83695977  0.25730737     0.14800
C655        C  0.47094443  0.86616654  0.24321882    -0.16100
H656        H  0.46624131  0.82486860  0.20703303     0.09100
H657        H  0.41472773  0.70683923  0.20927363     0.07000
H658        H  0.45209372  0.70785832  0.20568341     0.08200
H659        H  0.43072571  0.69165494  0.17980289     0.07200
H660        H  0.44022009  0.83455651  0.15795472     0.02100
H661        H  0.40275455  0.83116217  0.16056380     0.02600
H662        H  0.42006540  0.82241506  0.12871510     0.06100
H663        H  0.35534230  0.80304480  0.23158041     0.05000
H664        H  0.37769978  0.77476645  0.22238954    -0.00700
H665        H  0.36821653  0.80026713  0.19672138     0.00800
H666        H  0.48895124  0.85343263  0.24985903     0.04400
H667        H  0.46828208  0.88322952  0.25834310     0.06400
H668        H  0.47599947  0.87596550  0.22307955     0.07200
C669        C  0.32331717  0.88460853  0.36191104    -0.22400
C670        C  0.33217562  0.88432534  0.38968219     0.09600
C671        C  0.36092161  0.88288494  0.39575341     0.10000
C672        C  0.38015702  0.88164010  0.37391535    -0.17300
C673        C  0.37143773  0.88183765  0.34603172    -0.27700
C674        C  0.34253501  0.88342627  0.33996718     0.18300
C675        C  0.31092472  0.88461447  0.41204998     0.12300
C676        C  0.37132155  0.88318164  0.42529308    -0.12100
H677        H  0.40222168  0.88051284  0.37866791     0.12600
C678        C  0.33174780  0.88495715  0.31058864    -0.22900
H679        H  0.30120034  0.88581127  0.35743647     0.08200
C680        C  0.29703107  0.90906570  0.42041961     0.04500
C681        C  0.27653093  0.90761666  0.44107906    -0.20200
C682        C  0.26954052  0.88239381  0.45366197    -0.12400
C683        C  0.28429350  0.85816677  0.44610823     0.13200
C684        C  0.30456886  0.85956800  0.42523151    -0.22900
C685        C  0.30350281  0.93705437  0.40838346    -0.05900
H686        H  0.26572458  0.92635400  0.44724071     0.14800
C687        C  0.27961459  0.83102145  0.46065134    -0.16100
H688        H  0.31562782  0.84097770  0.41912096     0.09100
H689        H  0.30881313  0.88755421  0.30989895     0.07000
H690        H  0.33614664  0.86549499  0.29917402     0.08200
H691        H  0.34150537  0.90278192  0.29981317     0.07200
H692        H  0.36307474  0.86488247  0.43646568     0.02100
H693        H  0.36429198  0.90239840  0.43591976     0.02600
H694        H  0.39443236  0.88255876  0.42639474     0.06100
H695        H  0.31137028  0.95111652  0.42504699     0.05000
H696        H  0.28412017  0.94596468  0.39971668    -0.00700
H697        H  0.31935277  0.93628350  0.39176758     0.00800
H698        H  0.25847654  0.82293182  0.45590786     0.04400
H699        H  0.28215002  0.83397365  0.48340112     0.06400
H700        H  0.29471253  0.81502357  0.45383414     0.07200
C701        C  0.16164370  0.80045774  0.49489240    -0.22400
C702        C  0.13422106  0.80998416  0.49573618     0.09600
C703        C  0.12941169  0.83864638  0.49813952     0.10000
C704        C  0.15216505  0.85714759  0.49941404    -0.17300
C705        C  0.18014352  0.84800683  0.49822286    -0.27700
C706        C  0.18456627  0.81870723  0.49633932     0.18300
C707        C  0.11102380  0.78931919  0.49472295     0.12300
C708        C  0.10015626  0.84984274  0.49892387    -0.12100
H709        H  0.14730777  0.87874195  0.50172318     0.12600
C710        C  0.21283884  0.80509484  0.49601253    -0.22900
H711        H  0.16523143  0.77830191  0.49342772     0.08200
C712        C  0.10434942  0.77451459  0.47025914     0.04500
C713        C  0.08401225  0.75344902  0.47098606    -0.20200
C714        C  0.07031317  0.74608849  0.49581332    -0.12400
C715        C  0.07472628  0.76367977  0.51940489     0.13200
C716        C  0.09568373  0.78416979  0.51876926    -0.22900
C717        C  0.11860739  0.78103431  0.44327005    -0.05900
H718        H  0.07895240  0.74310111  0.45170311     0.14800
C719        C  0.05803650  0.76186863  0.54577817    -0.16100
H720        H  0.10015681  0.79626005  0.53734610     0.09100
H721        H  0.21549641  0.79368877  0.47610628     0.07000
H722        H  0.21418148  0.79005269  0.51328365     0.08200
H723        H  0.23062644  0.81941150  0.49852342     0.07200
H724        H  0.08912912  0.84202890  0.51747550     0.02100
H725        H  0.08863895  0.84317670  0.47995413     0.02600
H726        H  0.09993264  0.87285664  0.49990154     0.06100
H727        H  0.11042818  0.76804999  0.42588227     0.05000
H728        H  0.14129583  0.77714525  0.44510539    -0.00700
H729        H  0.11521932  0.80313054  0.43798355     0.00800
H730        H  0.07188744  0.75584658  0.56321721     0.04400
H731        H  0.04040591  0.74707943  0.54456772     0.06400
H732        H  0.04898444  0.78249051  0.55054656     0.07200
C733        C  0.07191499  0.57965042  0.61717633    -0.22400
C734        C  0.05408932  0.60255012  0.61940221     0.09600
C735        C  0.03577747  0.60401093  0.64241586     0.10000
C736        C  0.03396139  0.58155739  0.66068736    -0.17300
C737        C  0.05167472  0.55878270  0.65821862    -0.27700
C738        C  0.07211909  0.55867439  0.63716666     0.18300
C739        C  0.05251212  0.62264952  0.59594350     0.12300
C740        C  0.01813771  0.62901682  0.64862781    -0.12100
H741        H  0.01928582  0.58227066  0.67762827     0.12600
C742        C  0.09425176  0.53670139  0.63487426    -0.22900
H743        H  0.08535307  0.57756348  0.59934920     0.08200
C744        C  0.07607840  0.63660667  0.58504629     0.04500
C745        C  0.07278844  0.65382732  0.56178234    -0.20200
C746        C  0.04633865  0.65926031  0.55034498    -0.12400
C747        C  0.02269442  0.64740310  0.56321003     0.13200
C748        C  0.02625541  0.62799346  0.58435332    -0.22900
C749        C  0.10441229  0.63484145  0.59859491    -0.05900
H750        H  0.09104111  0.66339102  0.55272815     0.14800
C751        C  0.99355501  0.65705106  0.55738725    -0.16100
H752        H  0.00803811  0.61771346  0.59274742     0.09100
H753        H  0.11511384  0.54657598  0.63705360     0.07000
H754        H  0.09293103  0.52641383  0.61422828     0.08200
H755        H  0.09245915  0.52047797  0.65089780     0.07200
H756        H  0.99586142  0.62345626  0.64562279     0.02100
H757        H  0.02326699  0.64703407  0.63544948     0.02600
H758        H  0.02162168  0.63577503  0.67045093     0.06100
H759        H  0.11942117  0.64961821  0.58921114     0.05000
H760        H  0.11332070  0.61387509  0.59613400    -0.00700
H761        H  0.10276208  0.64010184  0.62098854     0.00800
H762        H  0.98468192  0.64562614  0.53939767     0.04400
H763        H  0.99321850  0.67978609  0.55413273     0.06400
H764        H  0.97989800  0.65307169  0.57542293     0.07200
C765        C  0.28562059  0.40556081  0.87958210    -0.22400
C766        C  0.31421041  0.41111321  0.88295075     0.09600
C767        C  0.32235840  0.43879080  0.88981238     0.10000
C768        C  0.30204334  0.45976887  0.89184007    -0.17300
C769        C  0.27340755  0.45386959  0.88941109    -0.27700
C770        C  0.26528353  0.42578439  0.88487332     0.18300
C771        C  0.33486009  0.38777329  0.87973188     0.12300
C772        C  0.35211136  0.44717704  0.89587242    -0.12100
H773        H  0.30880833  0.48097033  0.89549152     0.12600
C774        C  0.23560730  0.41568301  0.88734989    -0.22900
H775        H  0.27882639  0.38490406  0.87372551     0.08200
C776        C  0.33335805  0.36299035  0.89552722     0.04500
C777        C  0.35531330  0.34379026  0.89441511    -0.20200
C778        C  0.37797000  0.34747983  0.87666768    -0.12400
C779        C  0.37839121  0.37080421  0.85902232     0.13200
C780        C  0.35704023  0.39066137  0.86094103    -0.22900
C781        C  0.30853548  0.35584222  0.91309038    -0.05900
H782        H  0.35443580  0.32525321  0.90697665     0.14800
C783        C  0.40084649  0.37534657  0.83779764    -0.16100
H784        H  0.35787909  0.40880385  0.84782241     0.09100
H785        H  0.23489951  0.39770297  0.90160447     0.07000
H786        H  0.22763637  0.40895716  0.86669149     0.08200
H787        H  0.22154854  0.43141705  0.89640903     0.07200
H788        H  0.35937209  0.46199412  0.87991125     0.02100
H789        H  0.36665874  0.42950918  0.89659152     0.02600
H790        H  0.35324690  0.45750635  0.91652390     0.06100
H791        H  0.31314315  0.33874984  0.92769469     0.05000
H792        H  0.29101038  0.34879931  0.89968070    -0.00700
H793        H  0.30197340  0.37400842  0.92535908     0.00800
H794        H  0.39127953  0.37624834  0.81680946     0.04400
H795        H  0.41657505  0.35863083  0.83754785     0.06400
H796        H  0.41169099  0.39533405  0.84213472     0.07200
C797        C  0.17334206  0.50134776  0.80285374    -0.22400
C798        C  0.14551168  0.50330502  0.81081415     0.09600
C799        C  0.13911942  0.50521782  0.83922961     0.10000
C800        C  0.16079620  0.50536635  0.85908844    -0.17300
C801        C  0.18918691  0.50391983  0.85142181    -0.27700
C802        C  0.19518525  0.50164894  0.82237527     0.18300
C803        C  0.12370301  0.50522209  0.78877022     0.12300
C804        C  0.10932297  0.50765347  0.84855191    -0.12100
H805        H  0.15492737  0.50675719  0.88054817     0.12600
C806        C  0.22410717  0.49954766  0.81026513    -0.22900
H807        H  0.17813181  0.49997600  0.78091542     0.08200
C808        C  0.11915690  0.53022764  0.77469977     0.04500
C809        C  0.09906861  0.53125204  0.75348122    -0.20200
C810        C  0.08363639  0.50757560  0.74476466    -0.12400
C811        C  0.08685099  0.48297158  0.76078726     0.13200
C812        C  0.10730483  0.48201024  0.78190282    -0.22900
C813        C  0.13541818  0.55608918  0.78229059    -0.05900
H814        H  0.09527989  0.55124383  0.74449935     0.14800
C815        C  0.06901549  0.45731704  0.75704671    -0.16100
H816        H  0.11026992  0.46299743  0.79338332     0.09100
H817        H  0.22777553  0.51731195  0.79620001     0.07000
H818        H  0.22571131  0.48002023  0.79802668     0.08200
H819        H  0.24124646  0.49949827  0.82550309     0.07200
H820        H  0.09730985  0.48906471  0.84169953     0.02100
H821        H  0.09980435  0.52643826  0.83940391     0.02600
H822        H  0.10773309  0.50933275  0.87147588     0.06100
H823        H  0.12901214  0.57413935  0.76964641     0.05000
H824        H  0.15797499  0.55266069  0.77878947    -0.00700
H825        H  0.13201367  0.56137755  0.80446539     0.00800
H826        H  0.08212801  0.43985233  0.74976100     0.04400
H827        H  0.05146278  0.45985367  0.74241801     0.06400
H828        H  0.05968186  0.45166898  0.77727580     0.07200
C829        C  0.31014848  0.13514700  0.56834370    -0.22400
C830        C  0.30531548  0.11809202  0.59145458     0.09600
C831        C  0.27873197  0.10498807  0.59369822     0.10000
C832        C  0.25912079  0.10766504  0.57203842    -0.17300
C833        C  0.26498829  0.12302154  0.54819903    -0.27700
C834        C  0.29058476  0.13751054  0.54665191     0.18300
C835        C  0.32842415  0.11472278  0.61246554     0.12300
C836        C  0.26996007  0.08777067  0.61818108    -0.12100
H837        H  0.23921206  0.09702045  0.57345789     0.12600
C838        C  0.29792771  0.15570152  0.52248025    -0.22900
H839        H  0.32976830  0.14629234  0.56688141     0.08200
C840        C  0.35555947  0.10591193  0.60488908     0.04500
C841        C  0.37679688  0.10480978  0.62507568    -0.20200
C842        C  0.37192780  0.11065544  0.65324268    -0.12400
C843        C  0.34412710  0.11697152  0.66112534     0.13200
C844        C  0.32354753  0.12090945  0.64057410    -0.22900
C845        C  0.36317677  0.09693327  0.57585062    -0.05900
H846        H  0.39737701  0.09905781  0.61839263     0.14800
C847        C  0.33456018  0.11749754  0.69084432    -0.16100
H848        H  0.30298582  0.12762792  0.64682440     0.09100
H849        H  0.31668225  0.14742906  0.51196124     0.07000
H850        H  0.30248053  0.17705451  0.53008365     0.08200
H851        H  0.28090211  0.15709162  0.50699834     0.07200
H852        H  0.28710717  0.08300831  0.63267866     0.02100
H853        H  0.25339819  0.09882860  0.62973702     0.02600
H854        H  0.26124961  0.06766078  0.61089084     0.06100
H855        H  0.37247764  0.07591494  0.57648263     0.05000
H856        H  0.37876679  0.11159683  0.56725683    -0.00700
H857        H  0.34517274  0.09559393  0.56148508     0.00800
H858        H  0.32932698  0.13902191  0.69715919     0.04400
H859        H  0.35013028  0.10878574  0.70528626     0.06400
H860        H  0.31565847  0.10427309  0.69290659     0.07200
C861        C  0.06526847  0.38232149  0.58879484    -0.22400
C862        C  0.03989270  0.39395375  0.59693425     0.09600
C863        C  0.01499158  0.38478117  0.58383864     0.10000
C864        C  0.01603629  0.36303315  0.56434748    -0.17300
C865        C  0.04141193  0.35110529  0.55628801    -0.27700
C866        C  0.06653180  0.36143891  0.56836075     0.18300
C867        C  0.04065001  0.41697809  0.61767260     0.12300
C868        C  0.98702812  0.39771246  0.58927197    -0.12100
H869        H  0.99674478  0.35570571  0.55496367     0.12600
C870        C  0.09495130  0.35218391  0.55889844    -0.22900
H871        H  0.08438276  0.39021391  0.59808454     0.08200
C872        C  0.04676259  0.41251449  0.64593456     0.04500
C873        C  0.04824531  0.43530434  0.66433177    -0.20200
C874        C  0.04520666  0.46284693  0.65510824    -0.12400
C875        C  0.03981421  0.46701546  0.62629147     0.13200
C876        C  0.03704377  0.44406240  0.60835749    -0.22900
C877        C  0.05189851  0.38371876  0.65667276    -0.05900
H878        H  0.05198863  0.43146691  0.68614243     0.14800
C879        C  0.03827594  0.49484489  0.61260547    -0.16100
H880        H  0.03303329  0.44738080  0.58646178     0.09100
H881        H  0.09978896  0.33140252  0.56716189     0.07000
H882        H  0.11161371  0.36637522  0.56665229     0.08200
H883        H  0.09607790  0.35201427  0.53591048     0.07200
H884        H  0.98799209  0.41510174  0.60436679     0.02100
H885        H  0.97246683  0.38173875  0.59723789     0.02600
H886        H  0.97841821  0.40592768  0.56957539     0.06100
H887        H  0.05493708  0.38367089  0.67952848     0.05000
H888        H  0.07092508  0.37506629  0.64702503    -0.00700
H889        H  0.03398409  0.36997600  0.65149008     0.00800
H890        H  0.05299614  0.49553040  0.59491753     0.04400
H891        H  0.04419437  0.51194456  0.62639621     0.06400
H892        H  0.01683846  0.49834160  0.60466863     0.07200
C893        C  0.09448479  0.22378319  0.47942044    -0.22400
C894        C  0.11093843  0.21693675  0.50243445     0.09600
C895        C  0.10658385  0.23105965  0.52766364     0.10000
C896        C  0.08695280  0.25252790  0.52902139    -0.17300
C897        C  0.07168631  0.26140723  0.50548465    -0.27700
C898        C  0.07458959  0.24523615  0.48065237     0.18300
C899        C  0.13323397  0.19555595  0.49983235     0.12300
C900        C  0.12276164  0.22341922  0.55338552    -0.12100
H901        H  0.08377234  0.26172173  0.54906475     0.12600
C902        C  0.05736130  0.24955323  0.45476827    -0.22900
H903        H  0.09730466  0.21236196  0.46019074     0.08200
C904        C  0.12759286  0.16690802  0.50128168     0.04500
C905        C  0.14977823  0.14782380  0.50074083    -0.20200
C906        C  0.17798465  0.15648948  0.49915051    -0.12400
C907        C  0.18324823  0.18574570  0.49793056     0.13200
C908        C  0.16089487  0.20446788  0.49788818    -0.22900
C909        C  0.09809017  0.15651892  0.50407399    -0.05900
H910        H  0.14448539  0.12618294  0.50218883     0.14800
C911        C  0.21193035  0.19889217  0.49709641    -0.16100
H912        H  0.16516977  0.22656333  0.49708960     0.09100
H913        H  0.04688103  0.22975526  0.44888555     0.07000
H914        H  0.07115958  0.25596222  0.43752124     0.08200
H915        H  0.04079360  0.26516040  0.45705768     0.07200
H916        H  0.14537144  0.22681694  0.54998528     0.02100
H917        H  0.11900398  0.20126624  0.55832383     0.02600
H918        H  0.11658217  0.23608041  0.57165794     0.06100
H919        H  0.09708723  0.13354844  0.50531993     0.05000
H920        H  0.08558332  0.16301958  0.48584256    -0.00700
H921        H  0.08870252  0.16524777  0.52322350     0.00800
H922        H  0.21410842  0.21089273  0.47765628     0.04400
H923        H  0.22948288  0.18432901  0.49808750     0.06400
H924        H  0.21440049  0.21334940  0.51500284     0.07200
C925        C  0.32184076  0.56319214  0.12199058    -0.22400
C926        C  0.31268795  0.59025112  0.12696769     0.09600
C927        C  0.28435582  0.59479930  0.13295355     0.10000
C928        C  0.26577179  0.57216303  0.13335732    -0.17300
C929        C  0.27482326  0.54473828  0.12877614    -0.27700
C930        C  0.30366072  0.54034941  0.12369788     0.18300
C931        C  0.33335387  0.61335630  0.12643552     0.12300
C932        C  0.27374661  0.62351723  0.13914106    -0.12100
H933        H  0.24388097  0.57610889  0.13686187     0.12600
C934        C  0.31679113  0.51217980  0.12149949    -0.22900
H935        H  0.34370896  0.55976966  0.11764874     0.08200
C936        C  0.35324240  0.61716254  0.14786573     0.04500
C937        C  0.37255370  0.63911497  0.14621318    -0.20200
C938        C  0.37298398  0.65682929  0.12327268    -0.12400
C939        C  0.35210110  0.65388696  0.10260781     0.13200
C940        C  0.33298540  0.63187813  0.10418738    -0.22900
C941        C  0.35411798  0.59809247  0.17244780    -0.05900
H942        H  0.38780174  0.64210178  0.16261990     0.14800
C943        C  0.34838893  0.67418124  0.07933729    -0.16100
H944        H  0.31753850  0.62939273  0.08796167     0.09100
H945        H  0.33463672  0.51090880  0.13619269     0.07000
H946        H  0.32448220  0.50867613  0.10008208     0.08200
H947        H  0.30244961  0.49536675  0.12707891     0.07200
H948        H  0.27676002  0.63703773  0.12087518     0.02100
H949        H  0.28524394  0.63245674  0.15718933     0.02600
H950        H  0.25119681  0.62333813  0.14418192     0.06100
H951        H  0.37050981  0.60443742  0.18760216     0.05000
H952        H  0.35871095  0.57661887  0.16550195    -0.00700
H953        H  0.33372212  0.59837020  0.18319227     0.00800
H954        H  0.35170105  0.66355454  0.05912456     0.04400
H955        H  0.36258144  0.69224348  0.08116236     0.06400
H956        H  0.32681636  0.68238556  0.07970827     0.07200
C957        C  0.06632897  0.57794175  0.38230982    -0.22400
C958        C  0.04051634  0.58774577  0.39143268     0.09600
C959        C  0.01583065  0.57688362  0.37956076     0.10000
C960        C  0.01758537  0.55704458  0.35817495    -0.17300
C961        C  0.04342127  0.54674615  0.34916885    -0.27700
C962        C  0.06817623  0.55699860  0.36198634     0.18300
C963        C  0.03989826  0.60957416  0.41330310     0.12300
C964        C  0.98768049  0.58538685  0.39024629    -0.12100
H965        H  0.99854481  0.54919328  0.34872196     0.12600
C966        C  0.09678369  0.54562652  0.35627131    -0.22900
H967        H  0.08522898  0.58612356  0.39180446     0.08200
C968        C  0.04508739  0.60354362  0.44146455     0.04500
C969        C  0.04505434  0.62517981  0.46118071    -0.20200
C970        C  0.03976415  0.65264857  0.45339209    -0.12400
C971        C  0.03320060  0.65838376  0.42529978     0.13200
C972        C  0.03396917  0.63685199  0.40558464    -0.22900
C973        C  0.05034503  0.57427199  0.45070510    -0.05900
H974        H  0.04949275  0.62069835  0.48275498     0.14800
C975        C  0.02409628  0.68651821  0.41540181    -0.16100
H976        H  0.02940288  0.64128095  0.38401317     0.09100
H977        H  0.10649557  0.53899504  0.37608428     0.07000
H978        H  0.10999659  0.56203528  0.34696187     0.08200
H979        H  0.09674592  0.52730132  0.34243414     0.07200
H980        H  0.98492534  0.60808807  0.38829898     0.02100
H981        H  0.98597670  0.57977656  0.41246483     0.02600
H982        H  0.97047986  0.57487774  0.37869346     0.06100
H983        H  0.05342959  0.57310096  0.47351740     0.05000
H984        H  0.06933640  0.56611008  0.44056044    -0.00700
H985        H  0.03225058  0.56091407  0.44497999     0.00800
H986        H  0.03965669  0.69481036  0.40061551     0.04400
H987        H  0.02126799  0.70177634  0.43239559     0.06400
H988        H  0.00367152  0.68450019  0.40459959     0.07200
C989        C  0.04481730  0.40192160  0.44576974    -0.22400
C990        C  0.04228597  0.39342286  0.41800320     0.09600
C991        C  0.04173269  0.36479916  0.41165458     0.10000
C992        C  0.04294581  0.34534776  0.43325779    -0.17300
C993        C  0.04406390  0.35369982  0.46125986    -0.27700
C994        C  0.04584186  0.38253061  0.46748788     0.18300
C995        C  0.04173172  0.41475350  0.39574875     0.12300
C996        C  0.04001980  0.35479957  0.38201502    -0.12100
H997        H  0.04225793  0.32340427  0.42827201     0.12600
C998        C  0.05063961  0.39321284  0.49661305    -0.22900
H999        H  0.04610359  0.42392168  0.45043399     0.08200
C1000       C  0.01654150  0.42456484  0.38432281     0.04500
C1001       C  0.01728392  0.44324774  0.36202432    -0.20200
C1002       C  0.04265198  0.45328526  0.35147125    -0.12400
C1003       C  0.06786141  0.44498684  0.36449131     0.13200
C1004       C  0.06702395  0.42543133  0.38601667    -0.22900
C1005       C  0.98891997  0.41590599  0.39616044    -0.05900
H1006       H  0.99788139  0.45020494  0.35288404     0.14800
C1007       C  0.09559380  0.45778908  0.35727279    -0.16100
H1008       H  0.08625682  0.41855434  0.39555513     0.09100
H1009       H  0.03194479  0.39013175  0.50952452     0.07000
H1010       H  0.05522599  0.41581635  0.49692128     0.08200
H1011       H  0.06875108  0.38256907  0.50600891     0.07200
H1012       H  0.05834351  0.36250836  0.37035694     0.02100
H1013       H  0.02074432  0.36261519  0.37206388     0.02600
H1014       H  0.03969737  0.33180287  0.38060340     0.06100
H1015       H  0.97132880  0.42587238  0.38514223     0.05000
H1016       H  0.98793077  0.42208205  0.41836643    -0.00700
H1017       H  0.98630223  0.39314873  0.39444628     0.00800
H1018       H  0.11226771  0.45123854  0.37183824     0.04400
H1019       H  0.09417711  0.48069690  0.35857691     0.06400
H1020       H  0.10218555  0.45135502  0.33624987     0.07200
C1021       C  0.09873763  0.52271530  0.22286697    -0.22400
C1022       C  0.11380554  0.49877894  0.21621335     0.09600
C1023       C  0.10657354  0.47367970  0.22924618     0.10000
C1024       C  0.08641523  0.47364840  0.25030440    -0.17300
C1025       C  0.07288172  0.49813591  0.25906836    -0.27700
C1026       C  0.07746289  0.52243104  0.24290565     0.18300
C1027       C  0.13731179  0.50025795  0.19598750     0.12300
C1028       C  0.11980192  0.44666998  0.22064453    -0.12100
H1029       H  0.08111630  0.45396347  0.25933635     0.12600
C1030       C  0.06033054  0.54845695  0.24548375    -0.22900
H1031       H  0.10352864  0.54188314  0.21226495     0.08200
C1032       C  0.13319371  0.50537850  0.16752833     0.04500
C1033       C  0.15613176  0.50492441  0.14939262    -0.20200
C1034       C  0.18367474  0.49954760  0.15864192    -0.12400
C1035       C  0.18747833  0.49536047  0.18778822     0.13200
C1036       C  0.16441283  0.49573577  0.20565574    -0.22900
C1037       C  0.10447060  0.51077185  0.15600832    -0.05900
H1038       H  0.15175229  0.50905016  0.12797753     0.14800
C1039       C  0.21525736  0.49044795  0.20166506    -0.16100
H1040       H  0.16764070  0.49235677  0.22766046     0.09100
H1041       H  0.05168052  0.55380679  0.22480100     0.07000
H1042       H  0.07374172  0.56587146  0.25287085     0.08200
H1043       H  0.04234625  0.54642598  0.25953224     0.07200
H1044       H  0.14249793  0.44721350  0.22502050     0.02100
H1045       H  0.11631530  0.44304525  0.19811224     0.02600
H1046       H  0.11085056  0.42877532  0.23197810     0.06100
H1047       H  0.10466451  0.51316758  0.13311556     0.05000
H1048       H  0.09599853  0.53017233  0.16501702    -0.00700
H1049       H  0.09038502  0.49318816  0.16099995     0.00800
H1050       H  0.21885048  0.50652274  0.21794037     0.04400
H1051       H  0.23319723  0.49127759  0.18768640     0.06400
H1052       H  0.21510103  0.46974880  0.21160009     0.07200
C1053       C  0.52435937  0.44004269  0.12087721    -0.22400
C1054       C  0.53251602  0.41220803  0.11875594     0.09600
C1055       C  0.56116039  0.40595269  0.11689011     0.10000
C1056       C  0.58087958  0.42765441  0.11652176    -0.17300
C1057       C  0.57276292  0.45558600  0.11801540    -0.27700
C1058       C  0.54408352  0.46180925  0.12077806     0.18300
C1059       C  0.51071769  0.38999070  0.11780580     0.12300
C1060       C  0.57095408  0.37634375  0.11572233    -0.12100
H1061       H  0.60282126  0.42279892  0.11473281     0.12600
C1062       C  0.53412589  0.49112589  0.12494298    -0.22900
H1063       H  0.50237347  0.44473719  0.12254465     0.08200
C1064       C  0.49552926  0.38212248  0.14152099     0.04500
C1065       C  0.47492802  0.36126049  0.13922771    -0.20200
C1066       C  0.46913307  0.34784775  0.11379285    -0.12400
C1067       C  0.48504368  0.35532055  0.09027444     0.13200
C1068       C  0.50533192  0.37640177  0.09254658    -0.22900
C1069       C  0.50157038  0.39522216  0.16937695    -0.05900
H1070       H  0.46329101  0.35528797  0.15745945     0.14800
C1071       C  0.48140564  0.34097465  0.06277196    -0.16100
H1072       H  0.51717038  0.38237737  0.07443126     0.09100
H1073       H  0.51146048  0.49179267  0.12939333     0.07000
H1074       H  0.53760862  0.50353064  0.10605410     0.08200
H1075       H  0.54529120  0.50083238  0.14279506     0.07200
H1076       H  0.56288775  0.36595561  0.09666711     0.02100
H1077       H  0.56337659  0.36503993  0.13421131     0.02600
H1078       H  0.59404053  0.37506398  0.11548399     0.06100
H1079       H  0.48841824  0.38615176  0.18591943     0.05000
H1080       H  0.49740165  0.41780696  0.16863912    -0.00700
H1081       H  0.52375424  0.39189893  0.17503065     0.00800
H1082       H  0.46149949  0.34766003  0.05352043     0.04400
H1083       H  0.48192817  0.31812464  0.06532634     0.06400
H1084       H  0.49814437  0.34671918  0.04803844     0.07200
C1085       C  0.32373803  0.35417504  0.11628103    -0.22400
C1086       C  0.33036917  0.38257724  0.11590751     0.09600
C1087       C  0.35869405  0.39051470  0.11342289     0.10000
C1088       C  0.37957299  0.37007822  0.11271543    -0.17300
C1089       C  0.37308264  0.34162987  0.11375784    -0.27700
C1090       C  0.34453277  0.33364712  0.11453178     0.18300
C1091       C  0.30759783  0.40376052  0.11805141     0.12300
C1092       C  0.36696782  0.42058413  0.11083421    -0.12100
H1093       H  0.40122314  0.37645047  0.11157029     0.12600
C1094       C  0.33551251  0.30372244  0.11190151    -0.22900
H1095       H  0.30208372  0.34798170  0.11793700     0.08200
C1096       C  0.28783466  0.40789304  0.09658371     0.04500
C1097       C  0.26904534  0.43028708  0.09831038    -0.20200
C1098       C  0.26854561  0.44794825  0.12162142    -0.12400
C1099       C  0.28733363  0.44279097  0.14380811     0.13200
C1100       C  0.30648702  0.42089680  0.14168278    -0.22900
C1101       C  0.28649839  0.38866066  0.07189398    -0.05900
H1102       H  0.25443717  0.43385761  0.08150186     0.14800
C1103       C  0.28861359  0.46050947  0.16967199    -0.16100
H1104       H  0.32113686  0.41748420  0.15849747     0.09100
H1105       H  0.31260011  0.30179682  0.10905012     0.07000
H1106       H  0.34091771  0.29207875  0.13083921     0.08200
H1107       H  0.34554009  0.29401354  0.09356413     0.07200
H1108       H  0.36142352  0.43219719  0.12994217     0.02100
H1109       H  0.35607431  0.42983469  0.09278306     0.02600
H1110       H  0.38974669  0.42307169  0.10766115     0.06100
H1111       H  0.27096411  0.39563739  0.05633560     0.05000
H1112       H  0.28022434  0.36758647  0.07854012    -0.00700
H1113       H  0.30724260  0.38751206  0.06196488     0.00800
H1114       H  0.28298151  0.44781967  0.18793814     0.04400
H1115       H  0.27460244  0.47855870  0.16875267     0.06400
H1116       H  0.31011803  0.46869232  0.17260921    -0.14400
C1117       C  0.50596972  0.10078793  0.37329928    -0.22400
C1118       C  0.51389608  0.12588504  0.38588583     0.09600
C1119       C  0.50050310  0.15056013  0.37777256     0.10000
C1120       C  0.47842719  0.14926472  0.35833954    -0.17300
C1121       C  0.46977200  0.12389519  0.34636586    -0.27700
C1122       C  0.48446991  0.09955653  0.35336384     0.18300
C1123       C  0.53604073  0.12556726  0.40770807     0.12300
C1124       C  0.50987877  0.17824142  0.38924202    -0.12100
H1125       H  0.46783076  0.16813686  0.35249584     0.12600
C1126       C  0.47873533  0.07241578  0.33892073    -0.22900
H1127       H  0.51662924  0.08198368  0.37924204     0.08200
C1128       C  0.52928377  0.12445339  0.43614835     0.04500
C1129       C  0.55074780  0.12367487  0.45608915    -0.20200
C1130       C  0.57892374  0.12316356  0.44837124    -0.12400
C1131       C  0.58566287  0.12292991  0.41976206     0.13200
C1132       C  0.56412512  0.12451108  0.39983030    -0.22900
C1133       C  0.49938310  0.12311192  0.44542806    -0.05900
H1134       H  0.54547118  0.12315097  0.47791794     0.14800
C1135       C  0.61523169  0.11937136  0.41003031    -0.16100
H1136       H  0.56914267  0.12439082  0.37793511     0.09100
H1137       H  0.49517769  0.05722813  0.34380313     0.07000
H1138       H  0.47862953  0.07521887  0.31608777     0.08200
H1139       H  0.45858955  0.06370775  0.34580843     0.07200
H1140       H  0.53210358  0.18180362  0.38398505     0.02100
H1141       H  0.50759907  0.17874647  0.41211611     0.02600
H1142       H  0.49750253  0.19551577  0.38049926     0.06100
H1143       H  0.49774739  0.12181887  0.46835669     0.05000
H1144       H  0.48911082  0.10444986  0.43628613    -0.00700
H1145       H  0.48804447  0.14184622  0.43861652     0.00800
H1146       H  0.61635813  0.11749103  0.38709260     0.04400
H1147       H  0.62418575  0.10025988  0.41908186     0.06400
H1148       H  0.62813594  0.13753348  0.41615074     0.07200
C1149       C  0.32433345  0.12627042  0.36396694    -0.22400
C1150       C  0.33241636  0.12451556  0.39182837     0.09600
C1151       C  0.36097564  0.12247120  0.39853433     0.10000
C1152       C  0.38088584  0.12303549  0.37717348    -0.17300
C1153       C  0.37296542  0.12537407  0.34912722    -0.27700
C1154       C  0.34407156  0.12677614  0.34252051     0.18300
C1155       C  0.31033641  0.12415674  0.41339989     0.12300
C1156       C  0.37036194  0.11921861  0.42818439    -0.12100
H1157       H  0.40280710  0.12175386  0.38246876     0.12600
C1158       C  0.33344358  0.12799656  0.31304610    -0.22900
H1159       H  0.30230926  0.12738365  0.35900256     0.08200
C1160       C  0.30097449  0.14872293  0.42639757     0.04500
C1161       C  0.27915544  0.14736435  0.44577631    -0.20200
C1162       C  0.26593620  0.12208802  0.45197533    -0.12400
C1163       C  0.27438512  0.09781490  0.43759225     0.13200
C1164       C  0.29695344  0.09901693  0.41920250    -0.22900
C1165       C  0.31373637  0.17639403  0.41947823    -0.05900
H1166       H  0.27244460  0.16613002  0.45622893     0.14800
C1167       C  0.25892384  0.07075245  0.43940863    -0.16100
H1168       H  0.30342747  0.08034180  0.40838046     0.09100
H1169       H  0.33665202  0.14901620  0.30451903     0.07000
H1170       H  0.31071138  0.12365744  0.31182960     0.08200
H1171       H  0.34415372  0.11243044  0.29988880     0.07200
H1172       H  0.36106924  0.10006533  0.43692444     0.02100
H1173       H  0.36363152  0.13731122  0.44076332     0.02600
H1174       H  0.39338671  0.11765599  0.42986813     0.06100
H1175       H  0.30386882  0.19355679  0.43128667     0.05000
H1176       H  0.31098206  0.18052994  0.39700834    -0.00700
H1177       H  0.33630370  0.17640168  0.42454747     0.00800
H1178       H  0.23864494  0.07294098  0.44979622     0.04400
H1179       H  0.27197535  0.05540496  0.45042084     0.06400
H1180       H  0.25419548  0.06288657  0.41817642     0.07200
C1181       C  0.40609900  0.21234510  0.16551635    -0.22400
C1182       C  0.42391751  0.21312103  0.18868858     0.09600
C1183       C  0.44236616  0.23577982  0.19171822     0.10000
C1184       C  0.44282710  0.25678682  0.17161080    -0.17300
C1185       C  0.42495153  0.25657509  0.14809444    -0.27700
C1186       C  0.40552418  0.23399291  0.14590383     0.18300
C1187       C  0.42125849  0.19170660  0.21103147     0.12300
C1188       C  0.46082524  0.23859092  0.21703562    -0.12100
H1189       H  0.45646076  0.27406974  0.17580266     0.12600
C1190       C  0.38278861  0.23205539  0.12417640    -0.22900
H1191       H  0.39151210  0.19519426  0.16335391     0.08200
C1192       C  0.39801500  0.19097343  0.22875260     0.04500
C1193       C  0.39750743  0.17243110  0.25117504    -0.20200
C1194       C  0.42019345  0.15486479  0.25766044    -0.12400
C1195       C  0.44291794  0.15472527  0.23857419     0.13200
C1196       C  0.44308440  0.17312353  0.21589570    -0.22900
C1197       C  0.37389119  0.21045466  0.22461610    -0.05900
H1198       H  0.37870367  0.17196206  0.26316484     0.14800
C1199       C  0.46771149  0.13575764  0.24095019    -0.16100
H1200       H  0.46077141  0.17325316  0.20199467     0.09100
H1201       H  0.36232137  0.22974740  0.13457863     0.07000
H1202       H  0.38626432  0.21356553  0.11079727     0.08200
H1203       H  0.38104511  0.25039986  0.11079825     0.07200
H1204       H  0.47563566  0.22105192  0.21790655     0.02100
H1205       H  0.44785545  0.23868941  0.23604276     0.02600
H1206       H  0.47324983  0.25808839  0.21689679     0.06100
H1207       H  0.35790214  0.20812472  0.24101213     0.05000
H1208       H  0.36361260  0.20619896  0.20435509    -0.00700
H1209       H  0.38148078  0.23225174  0.22520007     0.00800
H1210       H  0.46976099  0.12352966  0.22146111     0.04400
H1211       H  0.46644534  0.12071213  0.25800733     0.06400
H1212       H  0.48692065  0.14838996  0.24401958     0.07200
C1213       C  0.49217661  0.85732789  0.38293266    -0.22400
C1214       C  0.50860590  0.88108167  0.38754757     0.09600
C1215       C  0.50306136  0.90530488  0.37227615     0.10000
C1216       C  0.48148613  0.90510304  0.35241202    -0.17300
C1217       C  0.46543164  0.88117342  0.34733479    -0.27700
C1218       C  0.47041531  0.85713705  0.36330197     0.18300
C1219       C  0.53153559  0.88010590  0.40841520     0.12300
C1220       C  0.51982043  0.93139212  0.37703646    -0.12100
H1221       H  0.47736963  0.92360717  0.34046415     0.12600
C1222       C  0.45271312  0.83128406  0.36095552    -0.22900
H1223       H  0.49621888  0.83884807  0.39494096     0.08200
C1224       C  0.52618413  0.88130893  0.43712941     0.04500
C1225       C  0.54852407  0.88012742  0.45600461    -0.20200
C1226       C  0.57626777  0.87802504  0.44699320    -0.12400
C1227       C  0.58160646  0.87719170  0.41806707     0.13200
C1228       C  0.55912532  0.87812386  0.39923530    -0.22900
C1229       C  0.49695177  0.88453300  0.44785152    -0.05900
H1230       H  0.54422529  0.88097052  0.47803332     0.14800
C1231       C  0.61076196  0.87642881  0.40662687    -0.16100
H1232       H  0.56305731  0.87739672  0.37712003     0.09100
H1233       H  0.44391159  0.82632088  0.38160053     0.07000
H1234       H  0.46575485  0.81367437  0.35390940     0.08200
H1235       H  0.43492962  0.83340577  0.34642402     0.07200
H1236       H  0.54212564  0.92752136  0.37266319     0.02100
H1237       H  0.51756818  0.93848820  0.39887458     0.02600
H1238       H  0.51277701  0.94820250  0.36319616     0.06100
H1239       H  0.49650252  0.88585127  0.47086267     0.05000
H1240       H  0.48399223  0.86648963  0.44128907    -0.00700
H1241       H  0.48769473  0.90381084  0.43948807     0.00800
H1242       H  0.61986278  0.85560406  0.40950353     0.04400
H1243       H  0.62406092  0.89231339  0.41705279     0.06400
H1244       H  0.61097059  0.88067624  0.38401554     0.07200
C1245       C  0.79652412  0.60317088  0.43753209    -0.22400
C1246       C  0.80041711  0.61265928  0.41043241     0.09600
C1247       C  0.80234964  0.64142062  0.40558258     0.10000
C1248       C  0.80189015  0.65997049  0.42823927    -0.17300
C1249       C  0.79874612  0.65048132  0.45557496    -0.27700
C1250       C  0.79524293  0.62167536  0.46014871     0.18300
C1251       C  0.80083132  0.59193841  0.38748498     0.12300
C1252       C  0.80411314  0.65253962  0.37652030    -0.12100
H1253       H  0.80402686  0.68203623  0.42461032     0.12600
C1254       C  0.78836724  0.61027547  0.48834772    -0.22900
H1255       H  0.79411065  0.58108807  0.44091177     0.08200
C1256       C  0.82599650  0.58136898  0.37685774     0.04500
C1257       C  0.82506116  0.56045967  0.35636759    -0.20200
C1258       C  0.79962061  0.55006007  0.34591235    -0.12400
C1259       C  0.77442401  0.56003904  0.35746026     0.13200
C1260       C  0.77542745  0.58100161  0.37788387    -0.22900
C1261       C  0.85380202  0.59151314  0.38771103    -0.05900
H1262       H  0.84437078  0.55194530  0.34874256     0.14800
C1263       C  0.74650812  0.54744831  0.35004262    -0.16100
H1264       H  0.75625350  0.58860345  0.38688157     0.09100
H1265       H  0.80627868  0.61249550  0.50271994     0.07000
H1266       H  0.78314555  0.58782237  0.48726506     0.08200
H1267       H  0.77002672  0.62121592  0.49692337     0.07200
H1268       H  0.78544917  0.64582628  0.36446137     0.02100
H1269       H  0.82303210  0.64467512  0.36606522     0.02600
H1270       H  0.80500631  0.67556007  0.37640907     0.06100
H1271       H  0.87140238  0.58094773  0.37723035     0.05000
H1272       H  0.85540515  0.58745317  0.41029402    -0.00700
H1273       H  0.85611947  0.61409975  0.38422669     0.00800
H1274       H  0.72969688  0.55555721  0.36355194     0.04400
H1275       H  0.74720857  0.52461408  0.35271851     0.06400
H1276       H  0.74064833  0.55249193  0.32844775     0.07200
C1277       C  0.68227452  0.79706131  0.49572428    -0.22400
C1278       C  0.70988677  0.80626147  0.49665258     0.09600
C1279       C  0.71551497  0.83489079  0.49673841     0.10000
C1280       C  0.69329249  0.85378176  0.49588459    -0.17300
C1281       C  0.66506761  0.84495754  0.49503275    -0.27700
C1282       C  0.65986998  0.81565716  0.49520807     0.18300
C1283       C  0.73236706  0.78533702  0.49917202     0.12300
C1284       C  0.74508734  0.84549909  0.49830657    -0.12100
H1285       H  0.69871638  0.87541354  0.49638581     0.12600
C1286       C  0.63129057  0.80235654  0.49521688    -0.22900
H1287       H  0.67812346  0.77492020  0.49594706     0.08200
C1288       C  0.73842406  0.77290156  0.52478191     0.04500
C1289       C  0.75807497  0.75151806  0.52598285    -0.20200
C1290       C  0.77173681  0.74155216  0.50201958    -0.12400
C1291       C  0.76805355  0.75683252  0.47700072     0.13200
C1292       C  0.74770829  0.77769973  0.47575510    -0.22900
C1293       C  0.72410851  0.78228166  0.55095636    -0.05900
H1294       H  0.76271946  0.74306893  0.54609127     0.14800
C1295       C  0.78507939  0.75230201  0.45113507    -0.16100
H1296       H  0.74387719  0.78824634  0.45633095     0.09100
H1297       H  0.62910738  0.78922729  0.51391246     0.07000
H1298       H  0.62883989  0.78899617  0.47648163     0.08200
H1299       H  0.61385520  0.81697801  0.49538336     0.07200
H1300       H  0.75691716  0.83800483  0.48003170     0.02100
H1301       H  0.75525025  0.83789906  0.51752195     0.02600
H1302       H  0.74606756  0.86851189  0.49858266     0.06100
H1303       H  0.73155914  0.77076994  0.56939976     0.05000
H1304       H  0.70129734  0.77883949  0.54902055    -0.00700
H1305       H  0.72828308  0.80469440  0.55458310     0.00800
H1306       H  0.77139632  0.74449402  0.43410510     0.04400
H1307       H  0.80254597  0.73775767  0.45390908     0.06400
H1308       H  0.79447047  0.77233178  0.44470415     0.07200
C1309       C  0.33293693  0.64305439  0.88305178    -0.22400
C1310       C  0.34057415  0.61514431  0.88554650     0.09600
C1311       C  0.36904580  0.60811569  0.88566725     0.10000
C1312       C  0.38922005  0.62904570  0.88274962    -0.17300
C1313       C  0.38181909  0.65708882  0.88027107    -0.27700
C1314       C  0.35317484  0.66419490  0.88063489     0.18300
C1315       C  0.31855665  0.59332205  0.88637609     0.12300
C1316       C  0.37817821  0.57854507  0.88950380    -0.12100
H1317       H  0.41106424  0.62345816  0.88277976     0.12600
C1318       C  0.34369140  0.69389447  0.87965016    -0.22900
H1319       H  0.31100386  0.64827981  0.88303132     0.08200
C1320       C  0.30398254  0.58683409  0.91088564     0.04500
C1321       C  0.28387559  0.56541247  0.91033995    -0.20200
C1322       C  0.27796751  0.55045331  0.88581775    -0.12400
C1323       C  0.29304816  0.55671167  0.86147206     0.13200
C1324       C  0.31296736  0.57815248  0.86206237    -0.22900
C1325       C  0.30992400  0.60225562  0.93758709    -0.05900
H1326       H  0.27251130  0.56050719  0.92905349     0.14800
C1327       C  0.28915596  0.54017771  0.83506983    -0.16100
H1328       H  0.32453829  0.58300677  0.84345178     0.09100
H1329       H  0.32083818  0.69558952  0.88264662     0.07000
H1330       H  0.34842916  0.70296117  0.85916723     0.08200
H1331       H  0.35414308  0.70615001  0.89633957     0.07200
H1332       H  0.37006115  0.56538305  0.87225642     0.02100
H1333       H  0.37009651  0.57059837  0.90948414     0.02600
H1334       H  0.40123949  0.57673536  0.88985800     0.06100
H1335       H  0.29695069  0.59440267  0.95488546     0.05000
H1336       H  0.30541410  0.62462848  0.93495535    -0.00700
H1337       H  0.33217856  0.59977874  0.94341997     0.00800
H1338       H  0.26815965  0.54378065  0.82625251     0.04400
H1339       H  0.29193660  0.51775931  0.83930644     0.06400
H1340       H  0.30450617  0.54624666  0.81903238     0.07200
C1341       C  0.52273578  0.87277373  0.63236191    -0.22400
C1342       C  0.51424238  0.87592533  0.60468250     0.09600
C1343       C  0.48543493  0.87772256  0.59864694     0.10000
C1344       C  0.46605370  0.87665268  0.62042481    -0.17300
C1345       C  0.47451338  0.87373382  0.64822563    -0.27700
C1346       C  0.50343629  0.87230146  0.65421557     0.18300
C1347       C  0.53593003  0.87776843  0.58257995     0.12300
C1348       C  0.47502036  0.88157906  0.56938051    -0.12100
H1349       H  0.44407594  0.87844208  0.61566713     0.12600
C1350       C  0.51446691  0.87190671  0.68351477    -0.22900
H1351       H  0.54477614  0.87099566  0.63695061     0.08200
C1352       C  0.55516488  0.90012938  0.58143537     0.04500
C1353       C  0.57528121  0.90079086  0.56025708    -0.20200
C1354       C  0.57679702  0.87959192  0.54027527    -0.12400
C1355       C  0.55732018  0.85744279  0.54116494     0.13200
C1356       C  0.53755377  0.85657697  0.56254645    -0.22900
C1357       C  0.55442077  0.92351497  0.60228621    -0.05900
H1358       H  0.59008137  0.91783814  0.55939069     0.14800
C1359       C  0.55628917  0.83468052  0.51960158    -0.16100
H1360       H  0.52315296  0.83920996  0.56349202     0.09100
H1361       H  0.53741375  0.87497964  0.68422434     0.07000
H1362       H  0.51006546  0.85157605  0.69307677     0.08200
H1363       H  0.50494139  0.88887421  0.69587478     0.07200
H1364       H  0.48036692  0.86330654  0.55640787     0.02100
H1365       H  0.48459344  0.90047261  0.56039326     0.02600
H1366       H  0.45202210  0.88395356  0.56859977     0.06100
H1367       H  0.57106771  0.93892194  0.59822289     0.05000
H1368       H  0.55807622  0.91571849  0.62353127    -0.00700
H1369       H  0.53392157  0.93402300  0.60135477     0.00800
H1370       H  0.56081787  0.81447511  0.52947838     0.04400
H1371       H  0.57121661  0.83793866  0.50255480     0.06400
H1372       H  0.53515189  0.83376815  0.51013802     0.07200
C1373       C  0.35639124  0.86189354  0.60848467    -0.22400
C1374       C  0.33489877  0.88135803  0.61101564     0.09600
C1375       C  0.33527600  0.89971185  0.63412501     0.10000
C1376       C  0.35783022  0.89919426  0.65303492    -0.17300
C1377       C  0.37949053  0.87995779  0.65017390    -0.27700
C1378       C  0.37840966  0.86072266  0.62782308     0.18300
C1379       C  0.31235016  0.88194275  0.58928384     0.12300
C1380       C  0.31181233  0.91966805  0.63907152    -0.12100
H1381       H  0.35827582  0.91348796  0.67050705     0.12600
C1382       C  0.39981500  0.83833225  0.62386564    -0.22900
H1383       H  0.35577653  0.84711564  0.59142152     0.08200
C1384       C  0.31799219  0.88862656  0.56135397     0.04500
C1385       C  0.29636239  0.88753079  0.54148837    -0.20200
C1386       C  0.26854254  0.88160275  0.54876382    -0.12400
C1387       C  0.26276285  0.87641222  0.57721647     0.13200
C1388       C  0.28480849  0.87565198  0.59664827    -0.22900
C1389       C  0.34664911  0.89785414  0.55249853    -0.05900
H1390       H  0.30148636  0.89135147  0.52001970     0.14800
C1391       C  0.23357076  0.87305846  0.58810916    -0.16100
H1392       H  0.28041119  0.87019463  0.61793542     0.09100
H1393       H  0.40997626  0.84083085  0.60339314     0.07000
H1394       H  0.38939573  0.81772633  0.62438044     0.08200
H1395       H  0.41624541  0.83857519  0.64005928     0.07200
H1396       H  0.29260066  0.90822136  0.64467338     0.02100
H1397       H  0.30775375  0.93167877  0.61998720     0.02600
H1398       H  0.31661259  0.93429435  0.65637839     0.06100
H1399       H  0.34702621  0.90388190  0.53031055     0.05000
H1400       H  0.36185373  0.88088904  0.55527625    -0.00700
H1401       H  0.35330979  0.91614348  0.56507462     0.00800
H1402       H  0.22594125  0.85163073  0.58431419     0.04400
H1403       H  0.21943785  0.88845325  0.57853327     0.06400
H1404       H  0.23287579  0.87659742  0.61089487     0.07200
C1405       C  0.45043607  0.82521438  0.78053205    -0.22400
C1406       C  0.42986522  0.80480805  0.78341811     0.09600
C1407       C  0.40861209  0.80279251  0.76325021     0.10000
C1408       C  0.40781404  0.82184898  0.74126597    -0.17300
C1409       C  0.42817739  0.84300415  0.73813167    -0.27700
C1410       C  0.45048289  0.84373545  0.75802861     0.18300
C1411       C  0.43218157  0.78440250  0.80651413     0.12300
C1412       C  0.38730423  0.77971533  0.76431003    -0.12100
H1413       H  0.39156632  0.81887948  0.72608939     0.12600
C1414       C  0.47532465  0.86300337  0.75574705    -0.22900
H1415       H  0.46710420  0.82613441  0.79578507     0.08200
C1416       C  0.45198805  0.76305289  0.80580290     0.04500
C1417       C  0.45264840  0.74337422  0.82712229    -0.20200
C1418       C  0.43412061  0.74409018  0.84995208    -0.12400
C1419       C  0.41390533  0.76580815  0.85019717     0.13200
C1420       C  0.41353419  0.78559820  0.82872656    -0.22900
C1421       C  0.47172665  0.76016369  0.78170527    -0.05900
H1422       H  0.46694271  0.72657203  0.82431740     0.14800
C1423       C  0.39189686  0.76840160  0.87231643    -0.16100
H1424       H  0.39822144  0.80202315  0.82899454     0.09100
H1425       H  0.49114523  0.85893701  0.77209264     0.07000
H1426       H  0.46928632  0.88491975  0.75834119     0.08200
H1427       H  0.48588041  0.85995827  0.73568013     0.07200
H1428       H  0.37505564  0.78134661  0.78369724     0.02100
H1429       H  0.39798321  0.75935139  0.76368445     0.02600
H1430       H  0.37251599  0.78043881  0.74653697     0.06100
H1431       H  0.48536598  0.74176547  0.78376683     0.05000
H1432       H  0.48537476  0.77875414  0.78047537    -0.00700
H1433       H  0.45968429  0.75788754  0.76207682     0.00800
H1434       H  0.40134242  0.77542353  0.89215343     0.04400
H1435       H  0.38061243  0.74852816  0.87506795     0.06400
H1436       H  0.37605462  0.78416166  0.86683317     0.07200
C1437       C  0.56546950  0.59438246  0.88828389    -0.22400
C1438       C  0.53739444  0.58746802  0.88355636     0.09600
C1439       C  0.53016113  0.55926626  0.87902324     0.10000
C1440       C  0.55101015  0.53878670  0.88006883    -0.17300
C1441       C  0.57909758  0.54571135  0.88502005    -0.27700
C1442       C  0.58626822  0.57399376  0.88958952     0.18300
C1443       C  0.51600406  0.61000926  0.88426217     0.12300
C1444       C  0.50051985  0.55065757  0.87289191    -0.12100
H1445       H  0.54544092  0.51726006  0.87630262     0.12600
C1446       C  0.61535870  0.58354091  0.89702915    -0.22900
H1447       H  0.57119218  0.61595741  0.89150234     0.08200
C1448       C  0.50942863  0.62436516  0.90908878     0.04500
C1449       C  0.48891902  0.64510879  0.90896650    -0.20200
C1450       C  0.47524450  0.65254734  0.88444917    -0.12400
C1451       C  0.48147697  0.63797574  0.85957310     0.13200
C1452       C  0.50200391  0.61724647  0.85976681    -0.22900
C1453       C  0.52410516  0.61805714  0.93581171    -0.05900
H1454       H  0.48403765  0.65614092  0.92800140     0.14800
C1455       C  0.46630905  0.64295861  0.83261311    -0.16100
H1456       H  0.50699713  0.60650903  0.84060813     0.09100
H1457       H  0.61477265  0.59587140  0.91656903     0.07000
H1458       H  0.62365579  0.59682090  0.88023442     0.08200
H1459       H  0.62999107  0.56628481  0.90064062     0.07200
H1460       H  0.49358949  0.55963687  0.85292485     0.02100
H1461       H  0.48659610  0.55800384  0.88960823     0.02600
H1462       H  0.49830841  0.52776578  0.87120054     0.06100
H1463       H  0.51536538  0.63032346  0.95323737     0.05000
H1464       H  0.54652816  0.62340575  0.93424023    -0.00700
H1465       H  0.52190691  0.59572097  0.94057913     0.00800
H1466       H  0.48119120  0.65088601  0.81696788     0.04400
H1467       H  0.44893327  0.65781600  0.83455198     0.06400
H1468       H  0.45717624  0.62311461  0.82491362     0.07200
C1469       C  0.54221471  0.42275359  0.85251919    -0.22400
C1470       C  0.53818971  0.40679392  0.87642150     0.09600
C1471       C  0.55470245  0.41231340  0.90017546     0.10000
C1472       C  0.57482074  0.43352581  0.89945311    -0.17300
C1473       C  0.57858796  0.44979966  0.87576560    -0.27700
C1474       C  0.56194212  0.44445896  0.85201808     0.18300
C1475       C  0.51568791  0.38536610  0.87651711     0.12300
C1476       C  0.55022602  0.39673444  0.92668867    -0.12100
H1477       H  0.58760684  0.43749484  0.91758105     0.12600
C1478       C  0.56396741  0.46235892  0.82664516    -0.22900
H1479       H  0.52938249  0.41857287  0.83437642     0.08200
C1480       C  0.48730336  0.39285890  0.87678803     0.04500
C1481       C  0.46674056  0.37204300  0.87637709    -0.20200
C1482       C  0.47365671  0.34380423  0.87551037    -0.12400
C1483       C  0.50213930  0.33626704  0.87685964     0.13200
C1484       C  0.52277272  0.35716981  0.87693003    -0.22900
C1485       C  0.47862640  0.42282173  0.87815476    -0.05900
H1486       H  0.44504417  0.37793345  0.87677715     0.14800
C1487       C  0.51096753  0.30649578  0.87991531    -0.16100
H1488       H  0.54459182  0.35152339  0.87745653     0.09100
H1489       H  0.54831292  0.45624159  0.81064780     0.07000
H1490       H  0.58487449  0.46042093  0.81721179     0.08200
H1491       H  0.56024955  0.48435866  0.83243240     0.07200
H1492       H  0.55462039  0.37437362  0.92356595     0.02100
H1493       H  0.52826009  0.39935828  0.93311202     0.02600
H1494       H  0.56393111  0.40456925  0.94370964     0.06100
H1495       H  0.45562508  0.42494615  0.87924777     0.05000
H1496       H  0.48581155  0.43390196  0.85940943    -0.00700
H1497       H  0.48782939  0.43286903  0.89690745     0.00800
H1498       H  0.50601062  0.29448196  0.86084418     0.04400
H1499       H  0.50022908  0.29708314  0.89792333     0.06400
H1500       H  0.53376868  0.30480785  0.88352686     0.07200
C1501       C  0.79735058  0.56194079  0.60830203    -0.22400
C1502       C  0.79804420  0.58991430  0.61628757     0.09600
C1503       C  0.79935530  0.59695720  0.64471278     0.10000
C1504       C  0.80214299  0.57580599  0.66447586    -0.17300
C1505       C  0.80275700  0.54769593  0.65644619    -0.27700
C1506       C  0.79925122  0.54071214  0.62802326     0.18300
C1507       C  0.79869938  0.61139413  0.59438051     0.12300
C1508       C  0.79743195  0.62675802  0.65403259    -0.12100
H1509       H  0.80397801  0.58122293  0.68627705     0.12600
C1510       C  0.79637339  0.51104966  0.61832793    -0.22900
H1511       H  0.79557470  0.55673289  0.58644371     0.08200
C1512       C  0.82409895  0.62164494  0.58370890     0.04500
C1513       C  0.82362649  0.64152209  0.56260731    -0.20200
C1514       C  0.79844296  0.65100596  0.55129494    -0.12400
C1515       C  0.77299011  0.63974789  0.56119114     0.13200
C1516       C  0.77350284  0.62065375  0.58307549    -0.22900
C1517       C  0.85207490  0.61182776  0.59381598    -0.05900
H1518       H  0.84320113  0.64969614  0.55493103     0.14800
C1519       C  0.74502076  0.64589822  0.54830763    -0.16100
H1520       H  0.75407399  0.61218118  0.59077860     0.09100
H1521       H  0.81624640  0.49991536  0.62121019     0.07000
H1522       H  0.79097013  0.50967724  0.59592471     0.08200
H1523       H  0.77953341  0.50055278  0.63004291     0.07200
H1524       H  0.77698791  0.63530041  0.64760209     0.02100
H1525       H  0.81419047  0.63924866  0.64435537     0.02600
H1526       H  0.79932202  0.62885184  0.67692712     0.06100
H1527       H  0.86414309  0.62972370  0.60224378     0.05000
H1528       H  0.86363277  0.60257665  0.57619486    -0.00700
H1529       H  0.85058345  0.59591594  0.61018473     0.00800
H1530       H  0.73442233  0.62609827  0.54263882     0.04400
H1531       H  0.74640647  0.65805438  0.52900268     0.06400
H1532       H  0.73192762  0.65725872  0.56347086     0.07200
C1533       C  0.83935120  0.42341098  0.62445749    -0.22400
C1534       C  0.81410568  0.41083286  0.61660288     0.09600
C1535       C  0.78929459  0.41921044  0.62966418     0.10000
C1536       C  0.79023521  0.44020971  0.64998125    -0.17300
C1537       C  0.81538157  0.45340398  0.65772385    -0.27700
C1538       C  0.84038791  0.44473909  0.64457391     0.18300
C1539       C  0.81361786  0.39007044  0.59356566     0.12300
C1540       C  0.76162176  0.40647589  0.62165503    -0.12100
H1541       H  0.77092579  0.44685882  0.65940079     0.12600
C1542       C  0.86840317  0.45738855  0.65117500    -0.22900
H1543       H  0.85831278  0.41688169  0.61428161     0.08200
C1544       C  0.81626997  0.39818364  0.56571249     0.04500
C1545       C  0.81243249  0.37842525  0.54447611    -0.20200
C1546       C  0.80580693  0.35049516  0.55000786    -0.12400
C1547       C  0.80550410  0.34206947  0.57828670     0.13200
C1548       C  0.80902165  0.36205687  0.59953309    -0.22900
C1549       C  0.82270118  0.42784106  0.55829085    -0.05900
H1550       H  0.81461430  0.38519869  0.52336736     0.14800
C1551       C  0.80343984  0.31212485  0.58672359    -0.16100
H1552       H  0.80798809  0.35585076  0.62106912     0.09100
H1553       H  0.87128982  0.47673813  0.63926359     0.07000
H1554       H  0.88558016  0.44320974  0.64531987     0.08200
H1555       H  0.87051185  0.46163149  0.67363739     0.07200
H1556       H  0.76170862  0.38393703  0.62610957     0.02100
H1557       H  0.75765623  0.40959815  0.59918589     0.02600
H1558       H  0.74416651  0.41591485  0.63336315     0.06100
H1559       H  0.82339070  0.43081877  0.53548195     0.05000
H1560       H  0.84332954  0.43398142  0.56693545    -0.00700
H1561       H  0.80644940  0.44171601  0.56686719     0.00800
H1562       H  0.80831401  0.30946243  0.60909320     0.04400
H1563       H  0.81871789  0.29961944  0.57491503     0.06400
H1564       H  0.78200457  0.30412185  0.58360833     0.07200
C1565       C  0.72633675  0.49205649  0.76067816    -0.22400
C1566       C  0.73455652  0.49703897  0.78811663     0.09600
C1567       C  0.76281174  0.50237402  0.79400889     0.10000
C1568       C  0.78223955  0.50294798  0.77224095    -0.17300
C1569       C  0.77434675  0.49836941  0.74418816    -0.27700
C1570       C  0.74545003  0.49291390  0.73867205     0.18300
C1571       C  0.71281188  0.49828633  0.81002376     0.12300
C1572       C  0.77238805  0.50789911  0.82337767    -0.12100
H1573       H  0.80343488  0.50773500  0.77780806     0.12600
C1574       C  0.73309206  0.48835923  0.71005772    -0.22900
H1575       H  0.70446554  0.48816055  0.75627189     0.08200
C1576       C  0.69809721  0.52286940  0.81536212     0.04500
C1577       C  0.67664123  0.52293171  0.83507540    -0.20200
C1578       C  0.66864997  0.49872361  0.84951657    -0.12400
C1579       C  0.68537704  0.47455171  0.84549868     0.13200
C1580       C  0.70668766  0.47464050  0.82550043    -0.22900
C1581       C  0.70501982  0.54916404  0.80006888    -0.05900
H1582       H  0.66662241  0.54243729  0.83898565     0.14800
C1583       C  0.68185839  0.44798686  0.86153596    -0.16100
H1584       H  0.71867080  0.45597359  0.82189469     0.09100
H1585       H  0.71643848  0.50382327  0.70643462     0.07000
H1586       H  0.72372333  0.46727070  0.70878543     0.08200
H1587       H  0.74787492  0.49037824  0.69278709     0.07200
H1588       H  0.76754343  0.48967075  0.83645796     0.02100
H1589       H  0.76156525  0.52634964  0.83189208     0.02600
H1590       H  0.79517674  0.51187017  0.82461787     0.06100
H1591       H  0.69164985  0.56670453  0.80667669     0.05000
H1592       H  0.70190822  0.54589403  0.77744159    -0.00700
H1593       H  0.72705597  0.55512262  0.80408631     0.00800
H1594       H  0.67621680  0.43084311  0.84701122     0.04400
H1595       H  0.66591171  0.44882549  0.87789292     0.06400
H1596       H  0.70186719  0.44283731  0.87190444     0.07200
C1597       C  0.93199306  0.37524108  0.33357273    -0.22400
C1598       C  0.92497811  0.37318465  0.36160769     0.09600
C1599       C  0.91723624  0.39719750  0.37663802     0.10000
C1600       C  0.91632795  0.42259706  0.36309484    -0.17300
C1601       C  0.92303353  0.42497619  0.33492178    -0.27700
C1602       C  0.93109048  0.40090143  0.31991594     0.18300
C1603       C  0.92638550  0.34616492  0.37557829     0.12300
C1604       C  0.91018236  0.39708296  0.40714797    -0.12100
H1605       H  0.91041931  0.44081837  0.37494011     0.12600
C1606       C  0.93935431  0.40199136  0.28985526    -0.22900
H1607       H  0.93821174  0.35670641  0.32241210     0.08200
C1608       C  0.90167877  0.33218885  0.38303755     0.04500
C1609       C  0.90186821  0.31515221  0.40645635    -0.20200
C1610       C  0.92630859  0.31224845  0.42208803    -0.12400
C1611       C  0.95180739  0.32204235  0.41155196     0.13200
C1612       C  0.95162645  0.33896738  0.38815764    -0.22900
C1613       C  0.87474531  0.33772451  0.36812415    -0.05900
H1614       H  0.88235212  0.30731444  0.41458641     0.14800
C1615       C  0.97889981  0.31765238  0.42664281    -0.16100
H1616       H  0.97075211  0.34893229  0.38168581     0.09100
H1617       H  0.94591072  0.38136360  0.28191883     0.07000
H1618       H  0.95713827  0.41656870  0.28730582     0.08200
H1619       H  0.92141102  0.40879586  0.27704649     0.07200
H1620       H  0.91218854  0.37650542  0.41691198     0.02100
H1621       H  0.88839939  0.40416053  0.40997174     0.02600
H1622       H  0.92439485  0.41152661  0.41848426     0.06100
H1623       H  0.85747414  0.32502538  0.37660658     0.05000
H1624       H  0.87700342  0.33250628  0.34578195    -0.00700
H1625       H  0.86924702  0.35994066  0.37032016     0.00800
H1626       H  0.99442938  0.30887251  0.41208936     0.04400
H1627       H  0.97675535  0.30301456  0.44415524     0.06400
H1628       H  0.98653487  0.33784929  0.43491789     0.07200
C1629       C  0.89134218  0.62287661  0.32648048    -0.22400
C1630       C  0.91591214  0.63512572  0.33675196     0.09600
C1631       C  0.94178722  0.62676259  0.32577375     0.10000
C1632       C  0.94307220  0.60216986  0.31025654    -0.17300
C1633       C  0.91878287  0.58699124  0.30452049    -0.27700
C1634       C  0.89259367  0.59883742  0.30999062     0.18300
C1635       C  0.91527617  0.64571564  0.36552025     0.12300
C1636       C  0.96849774  0.64178171  0.33286221    -0.12100
H1637       H  0.96321057  0.59335239  0.30537533     0.12600
C1638       C  0.86616017  0.58474626  0.30030870    -0.22900
H1639       H  0.87139907  0.62982918  0.33425952     0.08200
C1640       C  0.90836006  0.67307912  0.37280236     0.04500
C1641       C  0.90944913  0.68109447  0.40093153    -0.20200
C1642       C  0.91685653  0.66208463  0.42179785    -0.12400
C1643       C  0.92286019  0.63429365  0.41414809     0.13200
C1644       C  0.92198814  0.62667222  0.38618829    -0.22900
C1645       C  0.90011892  0.69360341  0.35096023    -0.05900
H1646       H  0.90444057  0.70226418  0.40660491     0.14800
C1647       C  0.93062385  0.61234157  0.43489591    -0.16100
H1648       H  0.92666528  0.60548251  0.38020633     0.09100
H1649       H  0.84735629  0.59603230  0.30739388     0.07000
H1650       H  0.86512573  0.56328774  0.30821542     0.08200
H1651       H  0.86583469  0.58385345  0.27729641     0.07200
H1652       H  0.96485924  0.66048978  0.34587863     0.02100
H1653       H  0.97872351  0.64854459  0.31343577     0.02600
H1654       H  0.98281660  0.62776436  0.34406166     0.06100
H1655       H  0.89544530  0.71424329  0.36013872     0.05000
H1656       H  0.88121277  0.68601626  0.33982275    -0.00700
H1657       H  0.91734462  0.69611547  0.33589278     0.00800
H1658       H  0.91314869  0.60888551  0.44947263     0.04400
H1659       H  0.94973904  0.61873657  0.44640981     0.06400
H1660       H  0.93494517  0.59207519  0.42475266     0.07200
C1661       C  0.94537143  0.63132560  0.68364744    -0.22400
C1662       C  0.92020215  0.63672314  0.66984925     0.09600
C1663       C  0.89550532  0.62399515  0.67927361     0.10000
C1664       C  0.89732668  0.60217514  0.69813664    -0.17300
C1665       C  0.92331500  0.59307593  0.70753591    -0.27700
C1666       C  0.94716263  0.60938507  0.70255553     0.18300
C1667       C  0.92162492  0.64703345  0.64105058     0.12300
C1668       C  0.86737436  0.63107615  0.66767326    -0.12100
H1669       H  0.87884550  0.58991193  0.70245957     0.12600
C1670       C  0.97478538  0.60183932  0.71522003    -0.22900
H1671       H  0.96409375  0.64212228  0.67734836     0.08200
C1672       C  0.91861472  0.67509426  0.63384762     0.04500
C1673       C  0.91907663  0.68244759  0.60569116    -0.20200
C1674       C  0.92220772  0.66239321  0.58449450    -0.12400
C1675       C  0.92531313  0.63415448  0.59201925     0.13200
C1676       C  0.92510469  0.62704169  0.62013482    -0.22900
C1677       C  0.91448285  0.69756178  0.65525282    -0.05900
H1678       H  0.91664202  0.70408375  0.60033003     0.14800
C1679       C  0.92880737  0.61113561  0.57094181    -0.16100
H1680       H  0.92729033  0.60548309  0.62598248     0.09100
H1681       H  0.99152210  0.61644953  0.70895933     0.07000
H1682       H  0.98076664  0.58057905  0.70870415     0.08200
H1683       H  0.97314005  0.60253893  0.73817698     0.07200
H1684       H  0.86825893  0.64838096  0.65268940     0.02100
H1685       H  0.85346093  0.63741237  0.68488545     0.02600
H1686       H  0.85835281  0.61254805  0.65714678     0.06100
H1687       H  0.93155240  0.71310099  0.65369922     0.05000
H1688       H  0.91436634  0.68950815  0.67673133    -0.00700
H1689       H  0.89427146  0.70798063  0.65143006     0.00800
H1690       H  0.94777818  0.61476134  0.55843763     0.04400
H1691       H  0.91026533  0.60991304  0.55714241     0.06400
H1692       H  0.93107174  0.59058350  0.58092118     0.07200
C1693       C  0.89968508  0.38880519  0.68018667    -0.22400
C1694       C  0.92289440  0.37972837  0.66511340     0.09600
C1695       C  0.94941218  0.39096280  0.67158831     0.10000
C1696       C  0.95128229  0.41452546  0.68864381    -0.17300
C1697       C  0.92741410  0.42620971  0.70030609    -0.27700
C1698       C  0.90185725  0.41159216  0.69845674     0.18300
C1699       C  0.91812675  0.36537870  0.63818354     0.12300
C1700       C  0.97588901  0.37973520  0.65954961    -0.12100
H1701       H  0.97113795  0.42522949  0.69082464     0.12600
C1702       C  0.87643318  0.42028844  0.71441819    -0.22900
H1703       H  0.87941307  0.37960577  0.67600113     0.08200
C1704       C  0.92108033  0.33657564  0.63439096     0.04500
C1705       C  0.91993413  0.32534907  0.60732493    -0.20200
C1706       C  0.91551179  0.34232627  0.58403983    -0.12400
C1707       C  0.91039647  0.37102779  0.58842009     0.13200
C1708       C  0.91214040  0.38206113  0.61534084    -0.22900
C1709       C  0.92573915  0.31793176  0.65882883    -0.05900
H1710       H  0.92314111  0.30330850  0.60434910     0.14800
C1711       C  0.90301429  0.39046137  0.56516136    -0.16100
H1712       H  0.90956424  0.40416644  0.61859771     0.09100
H1713       H  0.87042965  0.40339619  0.72874801     0.07000
H1714       H  0.85868798  0.42387627  0.70010664     0.08200
H1715       H  0.88010549  0.43934385  0.72697078     0.07200
H1716       H  0.97235952  0.36195061  0.64525436     0.02100
H1717       H  0.98951901  0.37263754  0.67672380     0.02600
H1718       H  0.98690778  0.39637544  0.64827021     0.06100
H1719       H  0.92745827  0.29586133  0.65234114     0.05000
H1720       H  0.90796405  0.31979695  0.67335966    -0.00700
H1721       H  0.94523876  0.32397695  0.66983837     0.00800
H1722       H  0.89796953  0.41156479  0.57298090     0.04400
H1723       H  0.88437754  0.38249960  0.55381174     0.06400
H1724       H  0.92086674  0.39267658  0.55080909     0.07200
C1725       C  0.23967520  0.99684639  0.36419716    -0.22400
C1726       C  0.26829289  0.00119340  0.36044412     0.09600
C1727       C  0.28588561  0.00535759  0.38371008     0.10000
C1728       C  0.27444454  0.00534200  0.41010469    -0.17300
C1729       C  0.24583685  0.00117683  0.41431375    -0.27700
C1730       C  0.22810867  0.99680511  0.39101558     0.18300
C1731       C  0.28074050  0.00050995  0.33255388     0.12300
C1732       C  0.31702956  0.00932151  0.38100179    -0.12100
H1733       H  0.28827500  0.00862478  0.42767899     0.12600
C1734       C  0.19731172  0.99173547  0.39411501    -0.22900
H1735       H  0.22649461  0.99335556  0.34616864     0.08200
C1736       C  0.29222391  0.97546593  0.32279069     0.04500
C1737       C  0.31764818  0.97626437  0.30863129    -0.20200
C1738       C  0.33100491  0.00167580  0.30392233    -0.12400
C1739       C  0.31673083  0.02663701  0.30894944     0.13200
C1740       C  0.29102262  0.02573624  0.32253893    -0.22900
C1741       C  0.27906133  0.94804950  0.32978101    -0.05900
H1742       H  0.32850964  0.95711419  0.30412958     0.14800
C1743       C  0.33007343  0.05423764  0.30302619    -0.16100
H1744       H  0.28167040  0.04490713  0.32966776     0.09100
H1745       H  0.18693753  0.98821315  0.37372695     0.07000
H1746       H  0.18744159  0.01003126  0.40402784     0.08200
H1747       H  0.19372347  0.97304640  0.40694966     0.07200
H1748       H  0.32165949  0.02863458  0.36953694     0.02100
H1749       H  0.32622382  0.99131099  0.36997802     0.02600
H1750       H  0.32753205  0.01112258  0.40152981     0.06100
H1751       H  0.29081972  0.93056256  0.32068166     0.05000
H1752       H  0.25748963  0.94726051  0.32138696    -0.00700
H1753       H  0.27840179  0.94525539  0.35250961     0.00800
H1754       H  0.31581821  0.07150284  0.30823786     0.04400
H1755       H  0.33522793  0.05552975  0.28065662     0.06400
H1756       H  0.34942708  0.05687467  0.31553150     0.07200
C1757       C  0.59070120  0.97832165  0.36736771    -0.22400
C1758       C  0.57997501  0.00395427  0.35927856     0.09600
C1759       C  0.59167399  0.02864603  0.37018480     0.10000
C1760       C  0.61069278  0.02703459  0.39227581    -0.17300
C1761       C  0.61754337  0.00126327  0.40358893    -0.27700
C1762       C  0.60931781  0.97670301  0.38969489     0.18300
C1763       C  0.55138652  0.00400964  0.34806887     0.12300
C1764       C  0.58194250  0.05653080  0.36033004    -0.12100
H1765       H  0.61714297  0.04585993  0.40303520     0.12600
C1766       C  0.61712434  0.94848750  0.40017568    -0.22900
H1767       H  0.58185139  0.95939333  0.35869406     0.08200
C1768       C  0.54522805  0.00180530  0.31964280     0.04500
C1769       C  0.51722353  0.00114699  0.31107517    -0.20200
C1770       C  0.49532698  0.00223244  0.33043914    -0.12400
C1771       C  0.50188451  0.00391639  0.35918518     0.13200
C1772       C  0.52982014  0.00504191  0.36743081    -0.22900
C1773       C  0.56815859  0.00023297  0.29855796    -0.05900
H1774       H  0.51248797  0.99975902  0.28910857     0.14800
C1775       C  0.48001528  0.00454134  0.38155612    -0.16100
H1776       H  0.53504560  0.00636014  0.38932944     0.09100
H1777       H  0.62709520  0.93645447  0.38323805     0.07000
H1778       H  0.59805841  0.93738908  0.40701340     0.08200
H1779       H  0.63201840  0.94957679  0.41784746     0.07200
H1780       H  0.55933818  0.05892434  0.36424529     0.02100
H1781       H  0.58583259  0.05839408  0.33774586     0.02600
H1782       H  0.59311899  0.07371014  0.37113681     0.06100
H1783       H  0.55976283  0.99864746  0.27708583     0.05000
H1784       H  0.58117089  0.98170959  0.30251941    -0.00700
H1785       H  0.58142105  0.01913002  0.30005138     0.00800
H1786       H  0.48939719  0.00568072  0.40265562     0.04400
H1787       H  0.46719250  0.98531874  0.38050393     0.06400
H1788       H  0.46662840  0.02305326  0.37914430     0.07200
C1789       C  0.56352985  0.97747674  0.66368899    -0.22400
C1790       C  0.57000988  0.00238154  0.65036344     0.09600
C1791       C  0.55750742  0.02724469  0.65925522     0.10000
C1792       C  0.53608637  0.02607569  0.67883150    -0.17300
C1793       C  0.52640803  0.00048367  0.68853567    -0.27700
C1794       C  0.54151067  0.97617935  0.68255606     0.18300
C1795       C  0.58146684  0.00041886  0.62218397     0.12300
C1796       C  0.56443208  0.05442622  0.64571288    -0.12100
H1797       H  0.52424741  0.04462435  0.68338705     0.12600
C1798       C  0.53275141  0.94818955  0.69316972    -0.22900
H1799       H  0.57324616  0.95841386  0.65676412     0.08200
C1800       C  0.60974823  0.00471665  0.61611357     0.04500
C1801       C  0.61836480  0.00338514  0.58836349    -0.20200
C1802       C  0.59932537  0.99726538  0.56680252    -0.12400
C1803       C  0.57110480  0.99153570  0.57338654     0.13200
C1804       C  0.56254286  0.99396310  0.60091136    -0.22900
C1805       C  0.63068543  0.01045369  0.63881407    -0.05900
H1806       H  0.64002116  0.00742207  0.58352159     0.14800
C1807       C  0.54976445  0.98246054  0.55198633    -0.16100
H1808       H  0.54085271  0.99037136  0.60607841     0.09100
H1809       H  0.55051502  0.93849144  0.70420978     0.07000
H1810       H  0.52643858  0.93465950  0.67544586     0.08200
H1811       H  0.51509078  0.94953485  0.70786095     0.07200
H1812       H  0.55927911  0.05347165  0.62325798     0.02100
H1813       H  0.58688664  0.05925191  0.64836860     0.02600
H1814       H  0.55258009  0.07160167  0.65518654     0.06100
H1815       H  0.65205460  0.01298514  0.63044639     0.05000
H1816       H  0.63082426  0.99291338  0.65358631    -0.00700
H1817       H  0.62524406  0.02973526  0.65015405     0.00800
H1818       H  0.52949572  0.97700482  0.56159588     0.04400
H1819       H  0.55724999  0.96373358  0.54079299     0.06400
H1820       H  0.54572254  0.99946280  0.53715699     0.07200
C1821       C  0.26981464  0.98110045  0.61517208    -0.22400
C1822       C  0.29234232  0.99957844  0.61700798     0.09600
C1823       C  0.29497834  0.02152448  0.59816683     0.10000
C1824       C  0.27536597  0.02396623  0.57702938    -0.17300
C1825       C  0.25438954  0.00396384  0.57338492    -0.27700
C1826       C  0.25099214  0.98254696  0.59296444     0.18300
C1827       C  0.31594428  0.99281679  0.63481377     0.12300
C1828       C  0.31970230  0.04098893  0.59898900    -0.12100
H1829       H  0.27790713  0.04016673  0.56172657     0.12600
C1830       C  0.22982848  0.95949424  0.58982602    -0.22900
H1831       H  0.26832416  0.96411481  0.62969426     0.08200
C1832       C  0.31835476  0.00322121  0.66200344     0.04500
C1833       C  0.34395602  0.00098655  0.67572295    -0.20200
C1834       C  0.36688800  0.98896359  0.66237358    -0.12400
C1835       C  0.36360139  0.97650608  0.63588252     0.13200
C1836       C  0.33811577  0.97894714  0.62231588    -0.22900
C1837       C  0.29440889  0.01773822  0.67580372    -0.05900
H1838       H  0.34648692  0.01007920  0.69622402     0.14800
C1839       C  0.38659123  0.96070892  0.62163257    -0.16100
H1840       H  0.33570075  0.97098720  0.60131623     0.09100
H1841       H  0.21623138  0.95910206  0.60837486     0.07000
H1842       H  0.24077812  0.93932872  0.58813838     0.08200
H1843       H  0.21633854  0.96154926  0.57130560     0.07200
H1844       H  0.33914617  0.02942012  0.59475460     0.02100
H1845       H  0.32149223  0.05100694  0.61971198     0.02600
H1846       H  0.31780077  0.05740711  0.58313223     0.06100
H1847       H  0.29989957  0.02475098  0.69715424     0.05000
H1848       H  0.27631709  0.00335654  0.67707406    -0.00700
H1849       H  0.28838209  0.03619693  0.66358409     0.00800
H1850       H  0.37898346  0.94997395  0.60254602     0.04400
H1851       H  0.39493969  0.94468557  0.63576064     0.06400
H1852       H  0.40354376  0.97502114  0.61534987     0.07200
C1853       C  0.30846052  0.41831735  0.01504101    -0.22400
C1854       C  0.29667792  0.39672412  0.99934556     0.09600
C1855       C  0.26902120  0.39836317  0.98975281     0.10000
C1856       C  0.25455534  0.42311349  0.99385232    -0.17300
C1857       C  0.26731462  0.44571292  0.00749572    -0.27700
C1858       C  0.29401169  0.44280278  0.01959330     0.18300
C1859       C  0.31505398  0.37391090  0.99176982     0.12300
C1860       C  0.25509817  0.37447069  0.97479283    -0.12100
H1861       H  0.23373872  0.42522253  0.98532195     0.12600
C1862       C  0.30741232  0.46504276  0.03748460    -0.22900
H1863       H  0.32948205  0.41618141  0.02310194     0.08200
C1864       C  0.33696742  0.37860019  0.97298812     0.04500
C1865       C  0.35751915  0.35857957  0.97020960    -0.20200
C1866       C  0.35769030  0.33522104  0.98727090    -0.12400
C1867       C  0.33529858  0.32998224  0.00535178     0.13200
C1868       C  0.31370099  0.34929884  0.00693002    -0.22900
C1869       C  0.34011187  0.40568148  0.95769311    -0.05900
H1870       H  0.37497139  0.36242283  0.95652194     0.14800
C1871       C  0.33543325  0.30564519  0.02475692    -0.16100
H1872       H  0.29702806  0.34640354  0.02172508     0.09100
H1873       H  0.31288022  0.48337714  0.02484802     0.07000
H1874       H  0.32696815  0.45769407  0.04734365     0.08200
H1875       H  0.29298478  0.47113932  0.05434348     0.07200
H1876       H  0.25445477  0.35612002  0.98852163     0.02100
H1877       H  0.26672543  0.36913285  0.95577807     0.02600
H1878       H  0.23338211  0.37949011  0.96864563     0.06100
H1879       H  0.35698680  0.40462542  0.94206874     0.05000
H1880       H  0.34544043  0.42262146  0.97251140    -0.00700
H1881       H  0.32047616  0.41115698  0.94690295     0.00800
H1882       H  0.31670533  0.30536015  0.03818717     0.04400
H1883       H  0.35410853  0.30674328  0.03845373     0.06400
H1884       H  0.33573388  0.28600941  0.01260289     0.07200
C1885       C  0.26068679  0.64167853  0.03581851    -0.22400
C1886       C  0.24794982  0.65985662  0.01703697     0.09600
C1887       C  0.22455717  0.65042794  0.00156554     0.10000
C1888       C  0.21761584  0.62201595  0.00170984    -0.17300
C1889       C  0.23324356  0.60334722  0.01752850    -0.27700
C1890       C  0.25323798  0.61364657  0.03659234     0.18300
C1891       C  0.26488927  0.68411243  0.00824922     0.12300
C1892       C  0.20738511  0.67019341  0.98461769    -0.12100
H1893       H  0.20122074  0.61418112  0.98817833     0.12600
C1894       C  0.26727698  0.59497887  0.05731938    -0.22900
H1895       H  0.27853951  0.64862580  0.04792951     0.08200
C1896       C  0.27745559  0.70228160  0.02791740     0.04500
C1897       C  0.30402742  0.71333143  0.02237024    -0.20200
C1898       C  0.31745456  0.70692329  0.99739700    -0.12400
C1899       C  0.30226819  0.69401662  0.97575265     0.13200
C1900       C  0.27617973  0.68249105  0.98146670    -0.22900
C1901       C  0.26362967  0.70853206  0.05522592    -0.05900
H1902       H  0.31550118  0.72405767  0.03869227     0.14800
C1903       C  0.31469419  0.69025435  0.94730977    -0.16100
H1904       H  0.26669159  0.66888585  0.96606875     0.09100
H1905       H  0.25134055  0.58292055  0.06879223     0.07000
H1906       H  0.27935788  0.60710592  0.07282526     0.08200
H1907       H  0.28181822  0.58060504  0.04679598     0.07200
H1908       H  0.21999128  0.67994981  0.96814093     0.02100
H1909       H  0.19907522  0.68670162  0.99839999     0.02600
H1910       H  0.18945306  0.65946493  0.97447192     0.06100
H1911       H  0.27613962  0.72345370  0.06787690     0.05000
H1912       H  0.26081402  0.68946257  0.06758452    -0.00700
H1913       H  0.24291013  0.71787087  0.05129649     0.00800
H1914       H  0.33354459  0.67709589  0.94823733     0.04400
H1915       H  0.32043066  0.71084848  0.93886298     0.06400
H1916       H  0.29971537  0.68024161  0.93265493     0.07200
C1917       C  0.49745340  0.52788171  0.98963679    -0.22400
C1918       C  0.50216012  0.55644586  0.99265390     0.09600
C1919       C  0.52967259  0.56680111  0.99525698     0.10000
C1920       C  0.55168607  0.54831665  0.99472871    -0.17300
C1921       C  0.54727994  0.51965336  0.99252822    -0.27700
C1922       C  0.51974282  0.50918003  0.98955377     0.18300
C1923       C  0.47831725  0.57523756  0.99510171     0.12300
C1924       C  0.53692068  0.59713928  0.99909016    -0.12100
H1925       H  0.57265579  0.55663796  0.99647878     0.12600
C1926       C  0.51347649  0.47863375  0.98651537    -0.22900
H1927       H  0.47623533  0.52018187  0.98813322     0.08200
C1928       C  0.46162773  0.58216973  0.97200431     0.04500
C1929       C  0.44430556  0.60538098  0.97384503    -0.20200
C1930       C  0.44402629  0.62168810  0.99801412    -0.12400
C1931       C  0.45936228  0.61358027  0.02159167     0.13200
C1932       C  0.47550405  0.58975313  0.02014576    -0.22900
C1933       C  0.46285166  0.56586991  0.94528694    -0.05900
H1934       H  0.43207614  0.61163447  0.95599563     0.14800
C1935       C  0.45999295  0.62984812  0.04831710    -0.16100
H1936       H  0.48813719  0.58398818  0.03791036     0.09100
H1937       H  0.52411203  0.47019493  0.96789932     0.07000
H1938       H  0.49080184  0.47455269  0.98395642     0.08200
H1939       H  0.52053207  0.46748413  0.00532114     0.07200
H1940       H  0.54608367  0.60063397  0.01995675     0.02100
H1941       H  0.51889343  0.61109849  0.99690339     0.02600
H1942       H  0.55265623  0.60336288  0.98351959     0.06100
H1943       H  0.44965513  0.57521241  0.92886572     0.05000
H1944       H  0.45532956  0.54438829  0.94875444    -0.00700
H1945       H  0.48457323  0.56513098  0.93772432     0.00800
H1946       H  0.45196505  0.61659016  0.06521072     0.04400
H1947       H  0.44728216  0.64883035  0.04767249     0.06400
H1948       H  0.48178826  0.63610650  0.05317173     0.07200
C1949       C  0.55374456  0.34804997  0.98885293    -0.22400
C1950       C  0.57321851  0.32839890  0.99740776     0.09600
C1951       C  0.56428361  0.30155344  0.00448745     0.10000
C1952       C  0.53569498  0.29491211  0.00260224    -0.17300
C1953       C  0.51594715  0.31505459  0.99503908    -0.27700
C1954       C  0.52529999  0.34212608  0.98818104     0.18300
C1955       C  0.60167276  0.33913346  0.00247384     0.12300
C1956       C  0.58480969  0.28033880  0.01439012    -0.12100
H1957       H  0.52867422  0.27428302  0.00807770     0.12600
C1958       C  0.50578784  0.36542059  0.98077257    -0.22900
H1959       H  0.56090664  0.36885297  0.98410866     0.08200
C1960       C  0.61750359  0.34829634  0.97966984     0.04500
C1961       C  0.63204614  0.37357692  0.98180344    -0.20200
C1962       C  0.63017588  0.38960976  0.00605900    -0.12400
C1963       C  0.61938371  0.37753213  0.03033461     0.13200
C1964       C  0.60576593  0.35185816  0.02842003    -0.22900
C1965       C  0.61592429  0.33324815  0.95222879    -0.05900
H1966       H  0.64083188  0.38273876  0.96331608     0.14800
C1967       C  0.61845665  0.39315825  0.05748940    -0.16100
H1968       H  0.59404695  0.34453836  0.04612606     0.09100
H1969       H  0.49332336  0.35972531  0.96207576     0.07000
H1970       H  0.51716872  0.38495445  0.97644585     0.08200
H1971       H  0.49194337  0.37021986  0.99850065     0.07200
H1972       H  0.59534483  0.28796205  0.03356966     0.02100
H1973       H  0.60067885  0.27665649  0.99812325     0.02600
H1974       H  0.57443847  0.26027967  0.01907619     0.06100
H1975       H  0.62937607  0.34323208  0.93646069     0.05000
H1976       H  0.59419292  0.33307620  0.94423390    -0.00700
H1977       H  0.62300137  0.31155751  0.95492783     0.00800
H1978       H  0.59645805  0.39746002  0.06295786     0.04400
H1979       H  0.62995564  0.41317342  0.05663518     0.06400
H1980       H  0.62810096  0.38047851  0.07404093     0.07200
loop_ 
_geom_bond_atom_site_label_1 
_geom_bond_atom_site_label_2 
_geom_bond_distance 
_geom_bond_site_symmetry_2 
_ccdc_geom_bond_type 
In1           O3   2.193   1_556  S
In1           O4   2.290   1_556  S
In1          O12   2.264       .  S
In1           O6   2.187   1_556  S
In1           O8   2.216       .  S
In1           O9   2.295       .  S
In1          O10   2.183       .  S
In1          O13   2.189       .  S
C2            O8   1.267       .  A
C2           O10   1.268       .  A
C2         C1921   1.473       .  S
O3           C11   1.257       .  A
O4           C11   1.274       .  A
C5           O12   1.265   1_554  A
C5            O6   1.260       .  A
C5         C1962   1.463       .  S
C7            O9   1.274       .  A
C7           O13   1.258       .  A
C7          C176   1.481       .  S
C11         C392   1.478       .  S
In14         O16   2.196   1_556  S
In14         O17   2.297   1_556  S
In14         O25   2.210   1_556  S
In14         O19   2.217       .  S
In14         O21   2.189       .  S
In14         O22   2.304       .  S
In14         O23   2.272   1_556  S
In14         O26   2.183       .  S
C15          O21   1.259       .  A
C15          O23   1.265   1_556  A
C15        C1898   1.466       .  S
O16          C24   1.257       .  A
O17          C24   1.273       .  A
C18          O25   1.266   1_556  A
C18          O19   1.265       .  A
C18        C1930   1.455       .  S
C20          O22   1.273       .  A
C20          O26   1.256       .  A
C20         C200   1.480       .  S
C24         C368   1.484       .  S
In27         O29   2.171   1_556  S
In27         O30   2.290   1_556  S
In27         O38   2.216       .  S
In27         O32   2.154       .  S
In27         O34   2.168       .  S
In27         O35   2.273       .  S
In27         O36   2.252       .  S
In27         O39   2.171       .  S
C28          O34   1.263       .  A
C28          O36   1.272       .  A
C28        C1953   1.483       .  S
O29          C37   1.260       .  A
O30          C37   1.280       .  A
C31          O38   1.274       .  A
C31          O32   1.270       .  A
C31        C1866   1.456       .  S
C33          O35   1.282       .  A
C33          O39   1.263       .  A
C33         C404   1.480       .  S
C37         C248   1.487       .  S
In40         O42   2.190       .  S
In40         O43   2.261       .  S
In40         O51   2.242       .  S
In40         O45   2.180       .  S
In40         O47   2.159       .  S
In40         O48   2.268   1_554  S
In40         O49   2.195       .  S
In40         O52   2.199   1_554  S
C41          O47   1.272       .  A
C41          O49   1.274       .  A
C41        C1857   1.459       .  S
O42          C50   1.266       .  A
O43          C50   1.280       .  A
C44          O51   1.272       .  A
C44          O45   1.267       .  A
C44        C1889   1.473       .  S
C46          O48   1.279       .  A
C46          O52   1.266       .  A
C46         C308   1.486       .  S
C50         C272   1.481       .  S
In53         O55   2.190       .  S
In53         O56   2.271       .  S
In53         O64   2.242       .  S
In53         O58   2.168       .  S
In53         O60   2.154       .  S
In53         O61   2.276   1_565  S
In53         O62   2.197       .  S
In53         O65   2.193   1_565  S
C54          O60   1.271       .  A
C54          O62   1.275       .  A
C54        C1834   1.459       .  S
O55          C63   1.266       .  A
O56          C63   1.281       .  A
C57          O64   1.272       .  A
C57          O58   1.266       .  A
C57        C1793   1.461   1_565  S
C59          O61   1.280       .  A
C59          O65   1.265       .  A
C59         C416   1.487       .  S
C63         C188   1.485       .  S
In66         O68   2.185       .  S
In66         O69   2.251       .  S
In66         O77   2.233   1_565  S
In66         O71   2.166       .  S
In66         O73   2.171       .  S
In66         O74   2.253   1_565  S
In66         O75   2.210       .  S
In66         O78   2.182   1_565  S
C67          O73   1.271       .  A
C67          O75   1.276       .  A
C67        C1802   1.478       .  S
O68          C76   1.268       .  A
O69          C76   1.280       .  A
C70          O77   1.274       .  A
C70          O71   1.270   1_545  A
C70        C1761   1.460       .  S
C72          O74   1.280       .  A
C72          O78   1.268       .  A
C72         C440   1.481       .  S
C76         C224   1.480       .  S
In79         O81   2.209       .  S
In79         O82   2.265       .  S
In79         O90   2.210       .  S
In79         O84   2.185       .  S
In79         O86   2.181       .  S
In79         O87   2.265   1_545  S
In79         O88   2.225       .  S
In79         O91   2.196   1_545  S
C80          O86   1.272       .  A
C80          O88   1.273       .  A
C80        C1738   1.462       .  S
O81          C89   1.269       .  A
O82          C89   1.279       .  A
C83          O90   1.275       .  A
C83          O84   1.272       .  A
C83        C1770   1.484       .  S
C85          O87   1.280       .  A
C85          O91   1.269       .  A
C85         C356   1.488       .  S
C89         C236   1.491       .  S
In92         O94   2.173       .  S
In92         O95   2.278       .  S
In92        O103   2.239       .  S
In92         O97   2.164       .  S
In92         O99   2.150       .  S
In92        O100   2.263   1_545  S
In92        O101   2.219       .  S
In92        O104   2.176   1_545  S
C93          O99   1.269       .  A
C93         O101   1.273       .  A
C93        C1825   1.453       .  S
O94         C102   1.263       .  A
O95         C102   1.280       .  A
C96         O103   1.272       .  A
C96          O97   1.267       .  A
C96        C1729   1.481       .  S
C98         O100   1.281       .  A
C98         O104   1.263       .  A
C98         C332   1.479       .  S
C102        C296   1.484       .  S
In105       O107   2.200       .  S
In105       O108   2.225       .  S
In105       O116   2.238       .  S
In105       O110   2.178       .  S
In105       O112   2.161       .  S
In105       O113   2.242       .  S
In105       O114   2.235       .  S
In105       O117   2.203       .  S
C106        O112   1.272       .  A
C106        O114   1.277       .  A
C106       C1665   1.463       .  S
O107        C115   1.273       .  A
O108        C115   1.279       .  A
C109        O116   1.277       .  A
C109        O110   1.272       .  A
C109       C1697   1.469       .  S
C111        O113   1.278       .  A
C111        O117   1.272       .  A
C111        C320   1.484   1_655  S
C115        C164   1.480       .  S
In118       O120   2.171       .  S
In118       O121   2.280       .  S
In118       O129   2.233       .  S
In118       O123   2.193       .  S
In118       O125   2.213       .  S
In118       O126   2.266       .  S
In118       O127   2.234       .  S
In118       O130   2.169       .  S
C119        O125   1.268       .  A
C119        O127   1.270       .  A
C119       C1674   1.490       .  S
O120        C128   1.262       .  A
O121        C128   1.277       .  A
C122        O129   1.271       .  A
C122        O123   1.268       .  A
C122       C1642   1.484       .  S
C124        O126   1.279       .  A
C124        O130   1.263       .  A
C124        C212   1.477       .  S
C128        C344   1.481   1_655  S
In131       O133   2.185       .  S
In131       O134   2.245       .  S
In131       O142   2.218       .  S
In131       O136   2.188       .  S
In131       O138   2.177       .  S
In131       O139   2.248       .  S
In131       O140   2.228       .  S
In131       O143   2.189       .  S
C132        O138   1.272       .  A
C132        O140   1.272       .  A
C132       C1633   1.462       .  S
O133        C141   1.268       .  A
O134        C141   1.280       .  A
C135        O142   1.274       .  A
C135        O136   1.273       .  A
C135       C1601   1.483       .  S
C137        O139   1.279       .  A
C137        O143   1.268       .  A
C137        C380   1.481       .  S
C141        C260   1.478   1_655  S
In144       O146   2.182       .  S
In144       O147   2.251       .  S
In144       O155   2.223       .  S
In144       O149   2.167       .  S
In144       O151   2.196       .  S
In144       O152   2.259       .  S
In144       O153   2.241       .  S
In144       O156   2.187       .  S
C145        O151   1.269       .  A
C145        O153   1.275       .  A
C145       C1706   1.492       .  S
O146        C154   1.268       .  A
O147        C154   1.280       .  A
C148        O155   1.273       .  A
C148        O149   1.272       .  A
C148       C1610   1.457       .  S
C150        O152   1.280       .  A
C150        O156   1.268       .  A
C150        C284   1.483   1_655  S
C154        C428   1.479       .  S
C157        C158   1.540       .  S
C157        C163   1.552       .  S
C157        C161   1.544       .  S
C157       C1569   1.551       .  S
C158        H165   1.086       .  S
C158        C159   1.363       .  D
C159       C1505   1.493       .  S
C159        C160   1.538       .  S
C160        C164   1.540       .  S
C160        C162   1.542       .  S
C160        H166   1.104       .  S
C161        H167   1.086       .  S
C161        C162   1.372       .  D
C162       C1537   1.504       .  S
C163        H168   1.080       .  S
C163        C164   1.366       .  D
C169        C170   1.546       .  S
C169        C175   1.550       .  S
C169        C173   1.553       .  S
C169       C1578   1.551       .  S
C170        H177   1.085       .  S
C170        C171   1.365       .  D
C171       C1473   1.488       .  S
C171        C172   1.534       .  S
C172        C176   1.541       .  S
C172        C174   1.539       .  S
C172        H178   1.112       .  S
C173        H179   1.081       .  S
C173        C174   1.366       .  D
C174       C1441   1.498       .  S
C175        H180   1.086       .  S
C175        C176   1.366       .  D
C181        C182   1.555       .  S
C181        C187   1.550       .  S
C181        C185   1.546       .  S
C181       C1409   1.558       .  S
C182        H189   1.081       .  S
C182        C183   1.365       .  D
C183       C1377   1.494       .  S
C183        C184   1.539       .  S
C184        C188   1.542       .  S
C184        C186   1.534       .  S
C184        H190   1.110       .  S
C185        H191   1.084       .  S
C185        C186   1.369       .  D
C186       C1345   1.499       .  S
C187        H192   1.084       .  S
C187        C188   1.366       .  D
C193        C194   1.553       .  S
C193        C199   1.556       .  S
C193        C197   1.551       .  S
C193       C1418   1.559       .  S
C194        H201   1.081       .  S
C194        C195   1.361       .  D
C195       C1450   1.491       .  S
C195        C196   1.531       .  S
C196        C200   1.538       .  S
C196        C198   1.528       .  S
C196        H202   1.112       .  S
C197        H203   1.084       .  S
C197        C198   1.369       .  D
C198       C1313   1.495       .  S
C199        H204   1.081       .  S
C199        C200   1.369       .  D
C205        C206   1.548       .  S
C205        C211   1.543       .  S
C205        C209   1.555       .  S
C205       C1290   1.546       .  S
C206        H213   1.086       .  S
C206        C207   1.366       .  D
C207       C1249   1.491       .  S
C207        C208   1.533       .  S
C208        C212   1.539       .  S
C208        C210   1.532       .  S
C208        H214   1.107       .  S
C209        H215   1.082       .  S
C209        C210   1.365       .  D
C210       C1514   1.491       .  S
C211        H216   1.086       .  S
C211        C212   1.365       .  D
C217        C218   1.542       .  S
C217        C223   1.558       .  S
C217        C221   1.545       .  S
C217       C1281   1.551       .  S
C218        H225   1.086       .  S
C218        C219   1.363       .  D
C219       C1354   1.488       .  S
C219        C220   1.535       .  S
C220        C224   1.537       .  S
C220        C222   1.536       .  S
C220        H226   1.111       .  S
C221        H227   1.082       .  S
C221        C222   1.369       .  D
C222       C1226   1.495       .  S
C223        H228   1.080       .  S
C223        C224   1.365       .  D
C229        C230   1.552       .  S
C229        C235   1.551       .  S
C229        C233   1.544       .  S
C229       C1194   1.561       .  S
C230        H237   1.077       .  S
C230        C231   1.366       .  D
C231       C1153   1.502       .  S
C231        C232   1.539       .  S
C232        C236   1.541       .  S
C232        C234   1.546       .  S
C232        H238   1.109       .  S
C233        H239   1.086       .  S
C233        C234   1.369       .  D
C234       C1121   1.499       .  S
C235        H240   1.086       .  S
C235        C236   1.368       .  D
C241        C242   1.556       .  S
C241        C247   1.553       .  S
C241        C245   1.542       .  S
C241       C1185   1.561       .  S
C242        H249   1.081       .  S
C242        C243   1.365       .  D
C243       C1066   1.502       .  S
C243        C244   1.539       .  S
C244        C248   1.546       .  S
C244        C246   1.543       .  S
C244        H250   1.109       .  S
C245        H251   1.083       .  S
C245        C246   1.368       .  D
C246       C1089   1.506       .  S
C247        H252   1.086       .  S
C247        C248   1.370       .  D
C253        C254   1.550       .  S
C253        C259   1.540       .  S
C253        C257   1.557       .  S
C253       C1025   1.552       .  S
C254        H261   1.085       .  S
C254        C255   1.369       .  D
C255        C961   1.493       .  S
C255        C256   1.532       .  S
C256        C260   1.541       .  S
C256        C258   1.533       .  S
C256        H262   1.110       .  S
C257        H263   1.078       .  S
C257        C258   1.368       .  D
C258       C1002   1.499       .  S
C259        H264   1.086       .  S
C259        C260   1.365       .  D
C265        C266   1.546       .  S
C265        C271   1.558       .  S
C265        C269   1.545       .  S
C265       C1034   1.557       .  S
C266        H273   1.086       .  S
C266        C267   1.367       .  D
C267       C1098   1.499       .  S
C267        C268   1.544       .  S
C268        C272   1.538       .  S
C268        C270   1.540       .  S
C268        H274   1.108       .  S
C269        H275   1.086       .  S
C269        C270   1.372       .  D
C270        C929   1.504       .  S
C271        H276   1.079       .  S
C271        C272   1.363       .  D
C277        C278   1.552       .  S
C277        C283   1.544       .  S
C277        C281   1.554       .  S
C277        C897   1.559       .  S
C278        H285   1.086       .  S
C278        C279   1.370       .  D
C279        C993   1.502       .  S
C279        C280   1.535       .  S
C280        C284   1.541       .  S
C280        C282   1.535       .  S
C280        H286   1.107       .  S
C281        H287   1.072       .  S
C281        C282   1.365       .  D
C282        C865   1.495       .  S
C283        H288   1.086       .  S
C283        C284   1.367       .  D
C289        C290   1.544       .  S
C289        C295   1.562       .  S
C289        C293   1.547       .  S
C289        C906   1.552       .  S
C290        H297   1.086       .  S
C290        C291   1.362       .  D
C291        C833   1.490       .  S
C291        C292   1.536       .  S
C292        C296   1.542       .  S
C292        C294   1.537       .  S
C292        H298   1.111       .  S
C293        H299   1.086       .  S
C293        C294   1.365       .  D
C294       C1162   1.496       .  S
C295        H300   1.081       .  S
C295        C296   1.370       .  D
C301        C302   1.539       .  S
C301        C307   1.559       .  S
C301        C305   1.536       .  S
C301        C801   1.550       .  S
C302        H309   1.085       .  S
C302        C303   1.365       .  D
C303       C1322   1.491       .  S
C303        C304   1.539       .  S
C304        C308   1.544       .  S
C304        C306   1.550       .  S
C304        H310   1.110       .  S
C305        H311   1.085       .  S
C305        C306   1.366       .  D
C306        C769   1.510       .  S
C307        H312   1.081       .  S
C307        C308   1.370       .  D
C313        C314   1.549       .  S
C313        C319   1.542       .  S
C313        C317   1.547       .  S
C313        C810   1.553       .  S
C314        H321   1.085       .  S
C314        C315   1.377       .  D
C315        C874   1.511       .  S
C315        C316   1.546       .  S
C316        C320   1.539       .  S
C316        C318   1.541       .  S
C316        H322   1.108       .  S
C317        H323   1.082       .  S
C317        C318   1.357       .  D
C318        C737   1.483       .  S
C319        H324   1.086       .  S
C319        C320   1.366       .  D
C325        C326   1.542       .  S
C325        C331   1.557       .  S
C325        C329   1.545       .  S
C325        C705   1.551       .  S
C326        H333   1.086       .  S
C326        C327   1.365       .  D
C327        C682   1.490       .  S
C327        C328   1.536       .  S
C328        C332   1.538       .  S
C328        C330   1.544       .  S
C328        H334   1.109       .  S
C329        H335   1.080       .  S
C329        C330   1.372       .  D
C330       C1386   1.513       .  S
C331        H336   1.080       .  S
C331        C332   1.362       .  D
C337        C338   1.544       .  S
C337        C343   1.551       .  S
C337        C341   1.552       .  S
C337        C714   1.548       .  S
C338        H345   1.085       .  S
C338        C339   1.366       .  D
C339        C746   1.500       .  S
C339        C340   1.540       .  S
C340        C344   1.539       .  S
C340        C342   1.528       .  S
C340        H346   1.107       .  S
C341        H347   1.082       .  S
C341        C342   1.362       .  D
C342        C970   1.486       .  S
C343        H348   1.086       .  S
C343        C344   1.369       .  D
C349        C350   1.543       .  S
C349        C355   1.551       .  S
C349        C353   1.557       .  S
C349        C650   1.556       .  S
C350        H357   1.086       .  S
C350        C351   1.365       .  D
C351       C1217   1.486       .  S
C351        C352   1.535       .  S
C352        C356   1.538       .  S
C352        C354   1.533       .  S
C352        H358   1.111       .  S
C353        H359   1.079       .  S
C353        C354   1.368       .  D
C354        C673   1.494       .  S
C355        H360   1.086       .  S
C355        C356   1.370       .  D
C361        C362   1.544       .  S
C361        C367   1.562       .  S
C361        C365   1.544       .  S
C361        C641   1.551       .  S
C362        H369   1.086       .  S
C362        C363   1.359       .  D
C363        C938   1.486       .  S
C363        C364   1.534       .  S
C364        C368   1.541       .  S
C364        C366   1.543       .  S
C364        H370   1.108       .  S
C365        H371   1.086       .  S
C365        C366   1.367       .  D
C366        C609   1.501       .  S
C367        H372   1.081       .  S
C367        C368   1.370       .  D
C373        C374   1.546       .  S
C373        C379   1.557       .  S
C373        C377   1.541       .  S
C373        C577   1.551       .  S
C374        H381   1.086       .  S
C374        C375   1.366       .  D
C375        C545   1.496       .  S
C375        C376   1.538       .  S
C376        C380   1.541       .  S
C376        C378   1.538       .  S
C376        H382   1.110       .  S
C377        H383   1.084       .  S
C377        C378   1.366       .  D
C378       C1258   1.496       .  S
C379        H384   1.081       .  S
C379        C380   1.368       .  D
C385        C386   1.547       .  S
C385        C391   1.543       .  S
C385        C389   1.556       .  S
C385        C586   1.549       .  S
C386        H393   1.086       .  S
C386        C387   1.369       .  D
C387        C618   1.499       .  S
C387        C388   1.542       .  S
C388        C392   1.541       .  S
C388        C390   1.533       .  S
C388        H394   1.107       .  S
C389        H395   1.083       .  S
C389        C390   1.365       .  D
C390       C1057   1.496       .  S
C391        H396   1.086       .  S
C391        C392   1.363       .  D
C397        C398   1.555       .  S
C397        C403   1.549       .  S
C397        C401   1.546       .  S
C397        C513   1.550       .  S
C398        H405   1.079       .  S
C398        C399   1.361       .  D
C399        C778   1.491       .  S
C399        C400   1.536       .  S
C400        C404   1.543       .  S
C400        C402   1.533       .  S
C400        H406   1.111       .  S
C401        H407   1.085       .  S
C401        C402   1.368       .  D
C402       C1482   1.493       .  S
C403        H408   1.086       .  S
C403        C404   1.365       .  D
C409        C410   1.549       .  S
C409        C415   1.550       .  S
C409        C413   1.540       .  S
C409        C522   1.554       .  S
C410        H417   1.078       .  S
C410        C411   1.361       .  D
C411        C481   1.492       .  S
C411        C412   1.537       .  S
C412        C416   1.542       .  S
C412        C414   1.554       .  S
C412        H418   1.109       .  S
C413        H419   1.085       .  S
C413        C414   1.372       .  D
C414        C842   1.514       .  S
C415        H420   1.086       .  S
C415        C416   1.367       .  D
C421        C422   1.551       .  S
C421        C427   1.545       .  S
C421        C425   1.551       .  S
C421        C449   1.556       .  S
C422        H429   1.080       .  S
C422        C423   1.376       .  D
C423       C1546   1.511       .  S
C423        C424   1.543       .  S
C424        C428   1.537       .  S
C424        C426   1.542       .  S
C424        H430   1.108       .  S
C425        H431   1.081       .  S
C425        C426   1.359       .  D
C426        C554   1.497       .  S
C427        H432   1.086       .  S
C427        C428   1.365       .  D
C433        C434   1.544       .  S
C433        C439   1.559       .  S
C433        C437   1.544       .  S
C433        C458   1.552       .  S
C434        H441   1.085       .  S
C434        C435   1.365       .  D
C435       C1130   1.495       .  S
C435        C436   1.534       .  S
C436        C440   1.539       .  S
C436        C438   1.539       .  S
C436        H442   1.108       .  S
C437        H443   1.086       .  S
C437        C438   1.367       .  D
C438        C490   1.496       .  S
C439        H444   1.081       .  S
C439        C440   1.369       .  D
C445        C446   1.400       .  A
C445        C450   1.412       .  A
C445        H455   1.084       .  S
C446        C451   1.494       .  S
C446        C447   1.407       .  A
C447        C452   1.509       .  S
C447        C448   1.405       .  A
C448        C449   1.416       .  A
C448        H453   1.075       .  S
C449        C450   1.431       .  A
C450        C454   1.508       .  S
C451        C456   1.408       .  A
C451        C460   1.397       .  A
C452        H468   1.110       .  S
C452        H469   1.110       .  S
C452        H470   1.110       .  S
C454        H465   1.111       .  S
C454        H466   1.110       .  S
C454        H467   1.101       .  S
C456        C461   1.507       .  S
C456        C457   1.411       .  A
C457        C458   1.418       .  A
C457        H462   1.075       .  S
C458        C459   1.433       .  A
C459        C463   1.513       .  S
C459        C460   1.406       .  A
C460        H464   1.085       .  S
C461        H471   1.111       .  S
C461        H472   1.110       .  S
C461        H473   1.110       .  S
C463        H474   1.110       .  S
C463        H475   1.101       .  S
C463        H476   1.111       .  S
C477        C478   1.399       .  A
C477        C482   1.405       .  A
C477        H487   1.083       .  S
C478        C483   1.487       .  S
C478        C479   1.412       .  A
C479        C484   1.506       .  S
C479        C480   1.408       .  A
C480        C481   1.404       .  A
C480        H485   1.080       .  S
C481        C482   1.419       .  A
C482        C486   1.510       .  S
C483        C488   1.410       .  A
C483        C492   1.399       .  A
C484        H500   1.110       .  S
C484        H501   1.109       .  S
C484        H502   1.111       .  S
C486        H497   1.107       .  S
C486        H498   1.109       .  S
C486        H499   1.111       .  S
C488        C493   1.506       .  S
C488        C489   1.407       .  A
C489        C490   1.407       .  A
C489        H494   1.084       .  S
C490        C491   1.417       .  A
C491        C495   1.502       .  S
C491        C492   1.407       .  A
C492        H496   1.084       .  S
C493        H503   1.111       .  S
C493        H504   1.110       .  S
C493        H505   1.109       .  S
C495        H506   1.110       .  S
C495        H507   1.104       .  S
C495        H508   1.107       .  S
C509        C510   1.399       .  A
C509        C514   1.408       .  A
C509        H519   1.085       .  S
C510        C515   1.492       .  S
C510        C511   1.407       .  A
C511        C516   1.509       .  S
C511        C512   1.405       .  A
C512        C513   1.417       .  A
C512        H517   1.072       .  S
C513        C514   1.432       .  A
C514        C518   1.512       .  S
C515        C520   1.407       .  A
C515        C524   1.400       .  A
C516        H532   1.109       .  S
C516        H533   1.110       .  S
C516        H534   1.111       .  S
C518        H529   1.111       .  S
C518        H530   1.110       .  S
C518        H531   1.101       .  S
C520        C525   1.510       .  S
C520        C521   1.404       .  A
C521        C522   1.418       .  A
C521        H526   1.073       .  S
C522        C523   1.430       .  A
C523        C527   1.510       .  S
C523        C524   1.409       .  A
C524        H528   1.085       .  S
C525        H535   1.111       .  S
C525        H536   1.109       .  S
C525        H537   1.110       .  S
C527        H538   1.111       .  S
C527        H539   1.101       .  S
C527        H540   1.111       .  S
C541        C542   1.401       .  A
C541        C546   1.403       .  A
C541        H551   1.085       .  S
C542        C547   1.494       .  S
C542        C543   1.415       .  A
C543        C548   1.506       .  S
C543        C544   1.411       .  A
C544        C545   1.407       .  A
C544        H549   1.084       .  S
C545        C546   1.417       .  A
C546        C550   1.503       .  S
C547        C552   1.414       .  A
C547        C556   1.402       .  A
C548        H564   1.109       .  S
C548        H565   1.110       .  S
C548        H566   1.111       .  S
C550        H561   1.111       .  S
C550        H562   1.109       .  S
C550        H563   1.102       .  S
C552        C557   1.507       .  S
C552        C553   1.409       .  A
C553        C554   1.406       .  A
C553        H558   1.084       .  S
C554        C555   1.418       .  A
C555        C559   1.503       .  S
C555        C556   1.407       .  A
C556        H560   1.084       .  S
C557        H567   1.110       .  S
C557        H568   1.107       .  S
C557        H569   1.110       .  S
C559        H570   1.110       .  S
C559        H571   1.105       .  S
C559        H572   1.110       .  S
C573        C574   1.397       .  A
C573        C578   1.405       .  A
C573        H583   1.085       .  S
C574        C579   1.493       .  S
C574        C575   1.409       .  A
C575        C580   1.507       .  S
C575        C576   1.411       .  A
C576        C577   1.417       .  A
C576        H581   1.075       .  S
C577        C578   1.433       .  A
C578        C582   1.512       .  S
C579        C584   1.409       .  A
C579        C588   1.401       .  A
C580        H596   1.109       .  S
C580        H597   1.110       .  S
C580        H598   1.111       .  S
C582        H593   1.111       .  S
C582        H594   1.111       .  S
C582        H595   1.100       .  S
C584        C589   1.508       .  S
C584        C585   1.405       .  A
C585        C586   1.414       .  A
C585        H590   1.078       .  S
C586        C587   1.428       .  A
C587        C591   1.509       .  S
C587        C588   1.410       .  A
C588        H592   1.084       .  S
C589        H599   1.111       .  S
C589        H600   1.109       .  S
C589        H601   1.110       .  S
C591        H602   1.110       .  S
C591        H603   1.105       .  S
C591        H604   1.111       .  S
C605        C606   1.403       .  A
C605        C610   1.408       .  A
C605        H615   1.084       .  S
C606        C611   1.498       .  S
C606        C607   1.414       .  A
C607        C612   1.506       .  S
C607        C608   1.411       .  A
C608        C609   1.407       .  A
C608        H613   1.084       .  S
C609        C610   1.417       .  A
C610        C614   1.502       .  S
C611        C616   1.415       .  A
C611        C620   1.404       .  A
C612        H628   1.109       .  S
C612        H629   1.110       .  S
C612        H630   1.111       .  S
C614        H625   1.111       .  S
C614        H626   1.107       .  S
C614        H627   1.108       .  S
C616        C621   1.507       .  S
C616        C617   1.409       .  A
C617        C618   1.406       .  A
C617        H622   1.084       .  S
C618        C619   1.416       .  A
C619        C623   1.506       .  S
C619        C620   1.411       .  A
C620        H624   1.082       .  S
C621        H631   1.111       .  S
C621        H632   1.109       .  S
C621        H633   1.111       .  S
C623        H634   1.107       .  S
C623        H635   1.110       .  S
C623        H636   1.107       .  S
C637        C638   1.397       .  A
C637        C642   1.407       .  A
C637        H647   1.085       .  S
C638        C643   1.496       .  S
C638        C639   1.409       .  A
C639        C644   1.506       .  S
C639        C640   1.411       .  A
C640        C641   1.416       .  A
C640        H645   1.075       .  S
C641        C642   1.434       .  A
C642        C646   1.513       .  S
C643        C648   1.408       .  A
C643        C652   1.400       .  A
C644        H660   1.110       .  S
C644        H661   1.110       .  S
C644        H662   1.111       .  S
C646        H657   1.111       .  S
C646        H658   1.111       .  S
C646        H659   1.101       .  S
C648        C653   1.508       .  S
C648        C649   1.407       .  A
C649        C650   1.416       .  A
C649        H654   1.077       .  S
C650        C651   1.431       .  A
C651        C655   1.509       .  S
C651        C652   1.412       .  A
C652        H656   1.084       .  S
C653        H663   1.111       .  S
C653        H664   1.110       .  S
C653        H665   1.110       .  S
C655        H666   1.110       .  S
C655        H667   1.103       .  S
C655        H668   1.111       .  S
C669        C670   1.403       .  A
C669        C674   1.408       .  A
C669        H679   1.084       .  S
C670        C675   1.488       .  S
C670        C671   1.411       .  A
C671        C676   1.506       .  S
C671        C672   1.405       .  A
C672        C673   1.406       .  A
C672        H677   1.084       .  S
C673        C674   1.419       .  A
C674        C678   1.508       .  S
C675        C680   1.415       .  A
C675        C684   1.402       .  A
C676        H692   1.110       .  S
C676        H693   1.110       .  S
C676        H694   1.111       .  S
C678        H689   1.109       .  S
C678        H690   1.106       .  S
C678        H691   1.110       .  S
C680        C685   1.505       .  S
C680        C681   1.406       .  A
C681        C682   1.403       .  A
C681        H686   1.085       .  S
C682        C683   1.416       .  A
C683        C687   1.506       .  S
C683        C684   1.406       .  A
C684        H688   1.084       .  S
C685        H695   1.110       .  S
C685        H696   1.108       .  S
C685        H697   1.108       .  S
C687        H698   1.107       .  S
C687        H699   1.111       .  S
C687        H700   1.111       .  S
C701        C702   1.397       .  A
C701        C706   1.406       .  A
C701        H711   1.085       .  S
C702        C707   1.490       .  S
C702        C703   1.407       .  A
C703        C708   1.508       .  S
C703        C704   1.407       .  A
C704        C705   1.417       .  A
C704        H709   1.074       .  S
C705        C706   1.432       .  A
C706        C710   1.511       .  S
C707        C712   1.408       .  A
C707        C716   1.400       .  A
C708        H724   1.109       .  S
C708        H725   1.110       .  S
C708        H726   1.111       .  S
C710        H721   1.111       .  S
C710        H722   1.111       .  S
C710        H723   1.100       .  S
C712        C717   1.508       .  S
C712        C713   1.405       .  A
C713        C714   1.415       .  A
C713        H718   1.077       .  S
C714        C715   1.427       .  A
C715        C719   1.509       .  S
C715        C716   1.406       .  A
C716        H720   1.084       .  S
C717        H727   1.111       .  S
C717        H728   1.109       .  S
C717        H729   1.110       .  S
C719        H730   1.111       .  S
C719        H731   1.104       .  S
C719        H732   1.111       .  S
C733        C734   1.405       .  A
C733        C738   1.403       .  A
C733        H743   1.082       .  S
C734        C739   1.497       .  S
C734        C735   1.421       .  A
C735        C740   1.507       .  S
C735        C736   1.404       .  A
C736        C737   1.398       .  A
C736        H741   1.082       .  S
C737        C738   1.416       .  A
C738        C742   1.509       .  S
C739        C744   1.418       .  A
C739        C748   1.402       .  A
C740        H756   1.109   1_455  S
C740        H757   1.108       .  S
C740        H758   1.110       .  S
C742        H753   1.110       .  S
C742        H754   1.110       .  S
C742        H755   1.107       .  S
C744        C749   1.509       .  S
C744        C745   1.410       .  A
C745        C746   1.408       .  A
C745        H750   1.083       .  S
C746        C747   1.416       .  A
C747        C751   1.502   1_455  S
C747        C748   1.400       .  A
C748        H752   1.084       .  S
C749        H759   1.111       .  S
C749        H760   1.106       .  S
C749        H761   1.110       .  S
C751        H762   1.106       .  S
C751        H763   1.109       .  S
C751        H764   1.109       .  S
C765        C766   1.405       .  A
C765        C770   1.407       .  A
C765        H775   1.081       .  S
C766        C771   1.512       .  S
C766        C767   1.424       .  A
C767        C772   1.508       .  S
C767        C768   1.413       .  A
C768        C769   1.406       .  A
C768        H773   1.084       .  S
C769        C770   1.422       .  A
C770        C774   1.508       .  S
C771        C776   1.424       .  A
C771        C780   1.409       .  A
C772        H788   1.110       .  S
C772        H789   1.106       .  S
C772        H790   1.111       .  S
C774        H785   1.111       .  S
C774        H786   1.110       .  S
C774        H787   1.107       .  S
C776        C781   1.505       .  S
C776        C777   1.408       .  A
C777        C778   1.399       .  A
C777        H782   1.084       .  S
C778        C779   1.416       .  A
C779        C783   1.506       .  S
C779        C780   1.410       .  A
C780        H784   1.084       .  S
C781        H791   1.111       .  S
C781        H792   1.108       .  S
C781        H793   1.102       .  S
C783        H794   1.110       .  S
C783        H795   1.108       .  S
C783        H796   1.110       .  S
C797        C798   1.395       .  A
C797        C802   1.405       .  A
C797        H807   1.085       .  S
C798        C803   1.491       .  S
C798        C799   1.408       .  A
C799        C804   1.506       .  S
C799        C800   1.410       .  A
C800        C801   1.416       .  A
C800        H805   1.075       .  S
C801        C802   1.435       .  A
C802        C806   1.513       .  S
C803        C808   1.406       .  A
C803        C812   1.401       .  A
C804        H820   1.110       .  S
C804        H821   1.110       .  S
C804        H822   1.111       .  S
C806        H817   1.111       .  S
C806        H818   1.111       .  S
C806        H819   1.100       .  S
C808        C813   1.509       .  S
C808        C809   1.403       .  A
C809        C810   1.417       .  A
C809        H814   1.076       .  S
C810        C811   1.430       .  A
C811        C815   1.509       .  S
C811        C812   1.412       .  A
C812        H816   1.084       .  S
C813        H823   1.111       .  S
C813        H824   1.110       .  S
C813        H825   1.110       .  S
C815        H826   1.110       .  S
C815        H827   1.104       .  S
C815        H828   1.111       .  S
C829        C830   1.410       .  A
C829        C834   1.407       .  A
C829        H839   1.084       .  S
C830        C835   1.508       .  S
C830        C831   1.425       .  A
C831        C836   1.509       .  S
C831        C832   1.409       .  A
C832        C833   1.401       .  A
C832        H837   1.085       .  S
C833        C834   1.412       .  A
C834        C838   1.506       .  S
C835        C840   1.421       .  A
C835        C844   1.406       .  A
C836        H852   1.103       .  S
C836        H853   1.110       .  S
C836        H854   1.108       .  S
C838        H849   1.110       .  S
C838        H850   1.110       .  S
C838        H851   1.106       .  S
C840        C845   1.510       .  S
C840        C841   1.407       .  A
C841        C842   1.406       .  A
C841        H846   1.078       .  S
C842        C843   1.424       .  A
C843        C847   1.507       .  S
C843        C844   1.410       .  A
C844        H848   1.084       .  S
C845        H855   1.111       .  S
C845        H856   1.111       .  S
C845        H857   1.106       .  S
C847        H858   1.110       .  S
C847        H859   1.106       .  S
C847        H860   1.111       .  S
C861        C862   1.401       .  A
C861        C866   1.405       .  A
C861        H871   1.084       .  S
C862        C867   1.488       .  S
C862        C863   1.415       .  A
C863        C868   1.507   1_455  S
C863        C864   1.404       .  A
C864        C865   1.406       .  A
C864        H869   1.084   1_455  S
C865        C866   1.422       .  A
C866        C870   1.510       .  S
C867        C872   1.411       .  A
C867        C876   1.396       .  A
C868        H884   1.106       .  S
C868        H885   1.109       .  S
C868        H886   1.110       .  S
C870        H881   1.107       .  S
C870        H882   1.111       .  S
C870        H883   1.110       .  S
C872        C877   1.507       .  S
C872        C873   1.408       .  A
C873        C874   1.412       .  A
C873        H878   1.083       .  S
C874        C875   1.428       .  A
C875        C879   1.502       .  S
C875        C876   1.404       .  A
C876        H880   1.085       .  S
C877        H887   1.111       .  S
C877        H888   1.109       .  S
C877        H889   1.109       .  S
C879        H890   1.111       .  S
C879        H891   1.090       .  S
C879        H892   1.110       .  S
C893        C894   1.401       .  A
C893        C898   1.413       .  A
C893        H903   1.084       .  S
C894        C899   1.496       .  S
C894        C895   1.406       .  A
C895        C900   1.509       .  S
C895        C896   1.406       .  A
C896        C897   1.418       .  A
C896        H901   1.072       .  S
C897        C898   1.431       .  A
C898        C902   1.510       .  S
C899        C904   1.409       .  A
C899        C908   1.397       .  A
C900        H916   1.110       .  S
C900        H917   1.110       .  S
C900        H918   1.110       .  S
C902        H913   1.111       .  S
C902        H914   1.110       .  S
C902        H915   1.104       .  S
C904        C909   1.506       .  S
C904        C905   1.412       .  A
C905        C906   1.417       .  A
C905        H910   1.075       .  S
C906        C907   1.434       .  A
C907        C911   1.513       .  S
C907        C908   1.406       .  A
C908        H912   1.085       .  S
C909        H919   1.111       .  S
C909        H920   1.110       .  S
C909        H921   1.110       .  S
C911        H922   1.110       .  S
C911        H923   1.101       .  S
C911        H924   1.111       .  S
C925        C926   1.399       .  A
C925        C930   1.404       .  A
C925        H935   1.085       .  S
C926        C931   1.488       .  S
C926        C927   1.410       .  A
C927        C932   1.507       .  S
C927        C928   1.406       .  A
C928        C929   1.411       .  A
C928        H933   1.083       .  S
C929        C930   1.424       .  A
C930        C934   1.504       .  S
C931        C936   1.413       .  A
C931        C940   1.401       .  A
C932        H948   1.109       .  S
C932        H949   1.111       .  S
C932        H950   1.111       .  S
C934        H945   1.111       .  S
C934        H946   1.110       .  S
C934        H947   1.097       .  S
C936        C941   1.506       .  S
C936        C937   1.406       .  A
C937        C938   1.403       .  A
C937        H942   1.083       .  S
C938        C939   1.415       .  A
C939        C943   1.505       .  S
C939        C940   1.402       .  A
C940        H944   1.080       .  S
C941        H951   1.111       .  S
C941        H952   1.110       .  S
C941        H953   1.110       .  S
C943        H954   1.110       .  S
C943        H955   1.105       .  S
C943        H956   1.111       .  S
C957        C958   1.401       .  A
C957        C962   1.405       .  A
C957        H967   1.085       .  S
C958        C963   1.484       .  S
C958        C959   1.409       .  A
C959        C964   1.507   1_455  S
C959        C960   1.404       .  A
C960        C961   1.408       .  A
C960        H965   1.084   1_455  S
C961        C962   1.421       .  A
C962        C966   1.508       .  S
C963        C968   1.412       .  A
C963        C972   1.400       .  A
C964        H980   1.108       .  S
C964        H981   1.110       .  S
C964        H982   1.111       .  S
C966        H977   1.111       .  S
C966        H978   1.110       .  S
C966        H979   1.103       .  S
C968        C973   1.506       .  S
C968        C969   1.406       .  A
C969        C970   1.404       .  A
C969        H974   1.084       .  S
C970        C971   1.419       .  A
C971        C975   1.508       .  S
C971        C972   1.403       .  A
C972        H976   1.085       .  S
C973        H983   1.111       .  S
C973        H984   1.110       .  S
C973        H985   1.110       .  S
C975        H986   1.110       .  S
C975        H987   1.106       .  S
C975        H988   1.111       .  S
C989        C990   1.401       .  A
C989        C994   1.410       .  A
C989        H999   1.084       .  S
C990        C995   1.492       .  S
C990        C991   1.412       .  A
C991        C996   1.506       .  S
C991        C992   1.408       .  A
C992        C993   1.406       .  A
C992        H997   1.084       .  S
C993        C994   1.422       .  A
C994        C998   1.508       .  S
C995       C1000   1.412       .  A
C995       C1004   1.401       .  A
C996       H1012   1.110       .  S
C996       H1013   1.109       .  S
C996       H1014   1.111       .  S
C998       H1009   1.105       .  S
C998       H1010   1.111       .  S
C998       H1011   1.109       .  S
C1000      C1005   1.504   1_455  S
C1000      C1001   1.409       .  A
C1001      C1002   1.407       .  A
C1001      H1006   1.084   1_455  S
C1002      C1003   1.421       .  A
C1003      C1007   1.508       .  S
C1003      C1004   1.408       .  A
C1004      H1008   1.084       .  S
C1005      H1015   1.109       .  S
C1005      H1016   1.110       .  S
C1005      H1017   1.106       .  S
C1007      H1018   1.111       .  S
C1007      H1019   1.109       .  S
C1007      H1020   1.106       .  S
C1021      C1022   1.402       .  A
C1021      C1026   1.410       .  A
C1021      H1031   1.084       .  S
C1022      C1027   1.497       .  S
C1022      C1023   1.411       .  A
C1023      C1028   1.509       .  S
C1023      C1024   1.406       .  A
C1024      C1025   1.414       .  A
C1024      H1029   1.077       .  S
C1025      C1026   1.429       .  A
C1026      C1030   1.509       .  S
C1027      C1032   1.409       .  A
C1027      C1036   1.398       .  A
C1028      H1044   1.109       .  S
C1028      H1045   1.110       .  S
C1028      H1046   1.111       .  S
C1030      H1041   1.111       .  S
C1030      H1042   1.110       .  S
C1030      H1043   1.104       .  S
C1032      C1037   1.508       .  S
C1032      C1033   1.410       .  A
C1033      C1034   1.419       .  A
C1033      H1038   1.073       .  S
C1034      C1035   1.432       .  A
C1035      C1039   1.509       .  S
C1035      C1036   1.407       .  A
C1036      H1040   1.085       .  S
C1037      H1047   1.111       .  S
C1037      H1048   1.109       .  S
C1037      H1049   1.110       .  S
C1039      H1050   1.111       .  S
C1039      H1051   1.097       .  S
C1039      H1052   1.111       .  S
C1053      C1054   1.404       .  A
C1053      C1058   1.409       .  A
C1053      H1063   1.084       .  S
C1054      C1059   1.493       .  S
C1054      C1055   1.413       .  A
C1055      C1060   1.507       .  S
C1055      C1056   1.407       .  A
C1056      C1057   1.406       .  A
C1056      H1061   1.084       .  S
C1057      C1058   1.417       .  A
C1058      C1062   1.507       .  S
C1059      C1064   1.413       .  A
C1059      C1068   1.400       .  A
C1060      H1076   1.110       .  S
C1060      H1077   1.110       .  S
C1060      H1078   1.110       .  S
C1062      H1073   1.111       .  S
C1062      H1074   1.106       .  S
C1062      H1075   1.110       .  S
C1064      C1069   1.505       .  S
C1064      C1065   1.410       .  A
C1065      C1066   1.407       .  A
C1065      H1070   1.084       .  S
C1066      C1067   1.418       .  A
C1067      C1071   1.499       .  S
C1067      C1068   1.407       .  A
C1068      H1072   1.084       .  S
C1069      H1079   1.111       .  S
C1069      H1080   1.109       .  S
C1069      H1081   1.111       .  S
C1071      H1082   1.103       .  S
C1071      H1083   1.110       .  S
C1071      H1084   1.111       .  S
C1085      C1086   1.405       .  A
C1085      C1090   1.412       .  A
C1085      H1095   1.083       .  S
C1086      C1091   1.504       .  S
C1086      C1087   1.416       .  A
C1087      C1092   1.507       .  S
C1087      C1088   1.410       .  A
C1088      C1089   1.406       .  A
C1088      H1093   1.084       .  S
C1089      C1090   1.422       .  A
C1090      C1094   1.508       .  S
C1091      C1096   1.416       .  A
C1091      C1100   1.403       .  A
C1092      H1108   1.109       .  S
C1092      H1109   1.111       .  S
C1092      H1110   1.111       .  S
C1094      H1105   1.111       .  S
C1094      H1106   1.106       .  S
C1094      H1107   1.110       .  S
C1096      C1101   1.504       .  S
C1096      C1097   1.413       .  A
C1097      C1098   1.405       .  A
C1097      H1102   1.084       .  S
C1098      C1099   1.420       .  A
C1099      C1103   1.507       .  S
C1099      C1100   1.408       .  A
C1100      H1104   1.084       .  S
C1101      H1111   1.110       .  S
C1101      H1112   1.108       .  S
C1101      H1113   1.109       .  S
C1103      H1114   1.110       .  S
C1103      H1115   1.104       .  S
C1103      H1116   1.111       .  S
C1117      C1118   1.399       .  A
C1117      C1122   1.407       .  A
C1117      H1127   1.084       .  S
C1118      C1123   1.492       .  S
C1118      C1119   1.413       .  A
C1119      C1124   1.506       .  S
C1119      C1120   1.411       .  A
C1120      C1121   1.408       .  A
C1120      H1125   1.084       .  S
C1121      C1122   1.415       .  A
C1122      C1126   1.501       .  S
C1123      C1128   1.412       .  A
C1123      C1132   1.404       .  A
C1124      H1140   1.110       .  S
C1124      H1141   1.109       .  S
C1124      H1142   1.111       .  S
C1126      H1137   1.106       .  S
C1126      H1138   1.110       .  S
C1126      H1139   1.106       .  S
C1128      C1133   1.507       .  S
C1128      C1129   1.406       .  A
C1129      C1130   1.405       .  A
C1129      H1134   1.084       .  S
C1130      C1131   1.418       .  A
C1131      C1135   1.508       .  S
C1131      C1132   1.410       .  A
C1132      H1136   1.084       .  S
C1133      H1143   1.111       .  S
C1133      H1144   1.110       .  S
C1133      H1145   1.109       .  S
C1135      H1146   1.110       .  S
C1135      H1147   1.111       .  S
C1135      H1148   1.107       .  S
C1149      C1150   1.399       .  A
C1149      C1154   1.406       .  A
C1149      H1159   1.084       .  S
C1150      C1155   1.489       .  S
C1150      C1151   1.411       .  A
C1151      C1156   1.506       .  S
C1151      C1152   1.409       .  A
C1152      C1153   1.408       .  A
C1152      H1157   1.084       .  S
C1153      C1154   1.423       .  A
C1154      C1158   1.509       .  S
C1155      C1160   1.413       .  A
C1155      C1164   1.400       .  A
C1156      H1172   1.110       .  S
C1156      H1173   1.109       .  S
C1156      H1174   1.111       .  S
C1158      H1169   1.107       .  S
C1158      H1170   1.111       .  S
C1158      H1171   1.109       .  S
C1160      C1165   1.506       .  S
C1160      C1161   1.409       .  A
C1161      C1162   1.406       .  A
C1161      H1166   1.084       .  S
C1162      C1163   1.418       .  A
C1163      C1167   1.501       .  S
C1163      C1164   1.405       .  A
C1164      H1168   1.085       .  S
C1165      H1175   1.111       .  S
C1165      H1176   1.110       .  S
C1165      H1177   1.109       .  S
C1167      H1178   1.102       .  S
C1167      H1179   1.109       .  S
C1167      H1180   1.111       .  S
C1181      C1182   1.403       .  A
C1181      C1186   1.414       .  A
C1181      H1191   1.084       .  S
C1182      C1187   1.504       .  S
C1182      C1183   1.408       .  A
C1183      C1188   1.509       .  S
C1183      C1184   1.408       .  A
C1184      C1185   1.418       .  A
C1184      H1189   1.074       .  S
C1185      C1186   1.432       .  A
C1186      C1190   1.510       .  S
C1187      C1192   1.409       .  A
C1187      C1196   1.403       .  A
C1188      H1204   1.109       .  S
C1188      H1205   1.111       .  S
C1188      H1206   1.110       .  S
C1190      H1201   1.111       .  S
C1190      H1202   1.110       .  S
C1190      H1203   1.102       .  S
C1192      C1197   1.509       .  S
C1192      C1193   1.409       .  A
C1193      C1194   1.419       .  A
C1193      H1198   1.075       .  S
C1194      C1195   1.431       .  A
C1195      C1199   1.510       .  S
C1195      C1196   1.414       .  A
C1196      H1200   1.084       .  S
C1197      H1207   1.111       .  S
C1197      H1208   1.109       .  S
C1197      H1209   1.110       .  S
C1199      H1210   1.110       .  S
C1199      H1211   1.103       .  S
C1199      H1212   1.111       .  S
C1213      C1214   1.402       .  A
C1213      C1218   1.406       .  A
C1213      H1223   1.084       .  S
C1214      C1219   1.488       .  S
C1214      C1215   1.412       .  A
C1215      C1220   1.504       .  S
C1215      C1216   1.407       .  A
C1216      C1217   1.403       .  A
C1216      H1221   1.085       .  S
C1217      C1218   1.417       .  A
C1218      C1222   1.508       .  S
C1219      C1224   1.410       .  A
C1219      C1228   1.402       .  A
C1220      H1236   1.109       .  S
C1220      H1237   1.110       .  S
C1220      H1238   1.107       .  S
C1222      H1233   1.111       .  S
C1222      H1234   1.110       .  S
C1222      H1235   1.107       .  S
C1224      C1229   1.506       .  S
C1224      C1225   1.404       .  A
C1225      C1226   1.407       .  A
C1225      H1230   1.083       .  S
C1226      C1227   1.420       .  A
C1227      C1231   1.508       .  S
C1227      C1228   1.407       .  A
C1228      H1232   1.084       .  S
C1229      H1239   1.111       .  S
C1229      H1240   1.109       .  S
C1229      H1241   1.111       .  S
C1231      H1242   1.107       .  S
C1231      H1243   1.110       .  S
C1231      H1244   1.111       .  S
C1245      C1246   1.401       .  A
C1245      C1250   1.405       .  A
C1245      H1255   1.084       .  S
C1246      C1251   1.485       .  S
C1246      C1247   1.411       .  A
C1247      C1252   1.507       .  S
C1247      C1248   1.407       .  A
C1248      C1249   1.407       .  A
C1248      H1253   1.084       .  S
C1249      C1250   1.417       .  A
C1250      C1254   1.508       .  S
C1251      C1256   1.411       .  A
C1251      C1260   1.400       .  A
C1252      H1268   1.110       .  S
C1252      H1269   1.108       .  S
C1252      H1270   1.111       .  S
C1254      H1265   1.105       .  S
C1254      H1266   1.111       .  S
C1254      H1267   1.109       .  S
C1256      C1261   1.508       .  S
C1256      C1257   1.406       .  A
C1257      C1258   1.407       .  A
C1257      H1262   1.081       .  S
C1258      C1259   1.419       .  A
C1259      C1263   1.508       .  S
C1259      C1260   1.406       .  A
C1260      H1264   1.084       .  S
C1261      H1271   1.111       .  S
C1261      H1272   1.110       .  S
C1261      H1273   1.108       .  S
C1263      H1274   1.111       .  S
C1263      H1275   1.110       .  S
C1263      H1276   1.106       .  S
C1277      C1278   1.395       .  A
C1277      C1282   1.405       .  A
C1277      H1287   1.085       .  S
C1278      C1283   1.487       .  S
C1278      C1279   1.405       .  A
C1279      C1284   1.507       .  S
C1279      C1280   1.408       .  A
C1280      C1281   1.418       .  A
C1280      H1285   1.074       .  S
C1281      C1282   1.433       .  A
C1282      C1286   1.511       .  S
C1283      C1288   1.407       .  A
C1283      C1292   1.399       .  A
C1284      H1300   1.110       .  S
C1284      H1301   1.110       .  S
C1284      H1302   1.110       .  S
C1286      H1297   1.111       .  S
C1286      H1298   1.111       .  S
C1286      H1299   1.098       .  S
C1288      C1293   1.508       .  S
C1288      C1289   1.403       .  A
C1289      C1290   1.414       .  A
C1289      H1294   1.077       .  S
C1290      C1291   1.429       .  A
C1291      C1295   1.510       .  S
C1291      C1292   1.408       .  A
C1292      H1296   1.085       .  S
C1293      H1303   1.111       .  S
C1293      H1304   1.110       .  S
C1293      H1305   1.110       .  S
C1295      H1306   1.111       .  S
C1295      H1307   1.105       .  S
C1295      H1308   1.111       .  S
C1309      C1310   1.403       .  A
C1309      C1314   1.410       .  A
C1309      H1319   1.084       .  S
C1310      C1315   1.488       .  S
C1310      C1311   1.410       .  A
C1311      C1316   1.507       .  S
C1311      C1312   1.403       .  A
C1312      C1313   1.406       .  A
C1312      H1317   1.084       .  S
C1313      C1314   1.419       .  A
C1314      C1318   1.507       .  S
C1315      C1320   1.413       .  A
C1315      C1324   1.400       .  A
C1316      H1332   1.109       .  S
C1316      H1333   1.111       .  S
C1316      H1334   1.111       .  S
C1318      H1329   1.111       .  S
C1318      H1330   1.107       .  S
C1318      H1331   1.110       .  S
C1320      C1325   1.506       .  S
C1320      C1321   1.409       .  A
C1321      C1322   1.407       .  A
C1321      H1326   1.084       .  S
C1322      C1323   1.416       .  A
C1323      C1327   1.507       .  S
C1323      C1324   1.404       .  A
C1324      H1328   1.084       .  S
C1325      H1335   1.111       .  S
C1325      H1336   1.110       .  S
C1325      H1337   1.110       .  S
C1327      H1338   1.107       .  S
C1327      H1339   1.111       .  S
C1327      H1340   1.111       .  S
C1341      C1342   1.403       .  A
C1341      C1346   1.407       .  A
C1341      H1351   1.084       .  S
C1342      C1347   1.496       .  S
C1342      C1343   1.415       .  A
C1343      C1348   1.508       .  S
C1343      C1344   1.408       .  A
C1344      C1345   1.407       .  A
C1344      H1349   1.082       .  S
C1345      C1346   1.419       .  A
C1346      C1350   1.506       .  S
C1347      C1352   1.417       .  A
C1347      C1356   1.403       .  A
C1348      H1364   1.109       .  S
C1348      H1365   1.110       .  S
C1348      H1366   1.111       .  S
C1350      H1361   1.111       .  S
C1350      H1362   1.106       .  S
C1350      H1363   1.111       .  S
C1352      C1357   1.505       .  S
C1352      C1353   1.410       .  A
C1353      C1354   1.402       .  A
C1353      H1358   1.084       .  S
C1354      C1355   1.416       .  A
C1355      C1359   1.506       .  S
C1355      C1356   1.405       .  A
C1356      H1360   1.084       .  S
C1357      H1367   1.107       .  S
C1357      H1368   1.107       .  S
C1357      H1369   1.110       .  S
C1359      H1370   1.110       .  S
C1359      H1371   1.105       .  S
C1359      H1372   1.111       .  S
C1373      C1374   1.404       .  A
C1373      C1378   1.407       .  A
C1373      H1383   1.084       .  S
C1374      C1379   1.503       .  S
C1374      C1375   1.417       .  A
C1375      C1380   1.505       .  S
C1375      C1376   1.412       .  A
C1376      C1377   1.404       .  A
C1376      H1381   1.084       .  S
C1377      C1378   1.417       .  A
C1378      C1382   1.507       .  S
C1379      C1384   1.414       .  A
C1379      C1388   1.403       .  A
C1380      H1396   1.108       .  S
C1380      H1397   1.108       .  S
C1380      H1398   1.110       .  S
C1382      H1393   1.110       .  S
C1382      H1394   1.110       .  S
C1382      H1395   1.107       .  S
C1384      C1389   1.508       .  S
C1384      C1385   1.409       .  A
C1385      C1386   1.411       .  A
C1385      H1390   1.082       .  S
C1386      C1387   1.425       .  A
C1387      C1391   1.507       .  S
C1387      C1388   1.410       .  A
C1388      H1392   1.083       .  S
C1389      H1399   1.111       .  S
C1389      H1400   1.108       .  S
C1389      H1401   1.111       .  S
C1391      H1402   1.108       .  S
C1391      H1403   1.110       .  S
C1391      H1404   1.111       .  S
C1405      C1406   1.398       .  A
C1405      C1410   1.411       .  A
C1405      H1415   1.084       .  S
C1406      C1411   1.496       .  S
C1406      C1407   1.408       .  A
C1407      C1412   1.508       .  S
C1407      C1408   1.409       .  A
C1408      C1409   1.418       .  A
C1408      H1413   1.075       .  S
C1409      C1410   1.434       .  A
C1410      C1414   1.512       .  S
C1411      C1416   1.406       .  A
C1411      C1420   1.400       .  A
C1412      H1428   1.109       .  S
C1412      H1429   1.111       .  S
C1412      H1430   1.111       .  S
C1414      H1425   1.111       .  S
C1414      H1426   1.104       .  S
C1414      H1427   1.104       .  S
C1416      C1421   1.509       .  S
C1416      C1417   1.405       .  A
C1417      C1418   1.419       .  A
C1417      H1422   1.073       .  S
C1418      C1419   1.432       .  A
C1419      C1423   1.510       .  S
C1419      C1420   1.414       .  A
C1420      H1424   1.084       .  S
C1421      H1431   1.111       .  S
C1421      H1432   1.109       .  S
C1421      H1433   1.110       .  S
C1423      H1434   1.106       .  S
C1423      H1435   1.107       .  S
C1423      H1436   1.111       .  S
C1437      C1438   1.403       .  A
C1437      C1442   1.407       .  A
C1437      H1447   1.084       .  S
C1438      C1443   1.500       .  S
C1438      C1439   1.417       .  A
C1439      C1444   1.507       .  S
C1439      C1440   1.411       .  A
C1440      C1441   1.406       .  A
C1440      H1445   1.084       .  S
C1441      C1442   1.420       .  A
C1442      C1446   1.508       .  S
C1443      C1448   1.416       .  A
C1443      C1452   1.403       .  A
C1444      H1460   1.109       .  S
C1444      H1461   1.107       .  S
C1444      H1462   1.111       .  S
C1446      H1457   1.111       .  S
C1446      H1458   1.110       .  S
C1446      H1459   1.106       .  S
C1448      C1453   1.499       .  S
C1448      C1449   1.408       .  A
C1449      C1450   1.399       .  A
C1449      H1454   1.084       .  S
C1450      C1451   1.419       .  A
C1451      C1455   1.508       .  S
C1451      C1452   1.408       .  A
C1452      H1456   1.084       .  S
C1453      H1463   1.109       .  S
C1453      H1464   1.108       .  S
C1453      H1465   1.108       .  S
C1455      H1466   1.110       .  S
C1455      H1467   1.107       .  S
C1455      H1468   1.110       .  S
C1469      C1470   1.404       .  A
C1469      C1474   1.408       .  A
C1469      H1479   1.084       .  S
C1470      C1475   1.490       .  S
C1470      C1471   1.412       .  A
C1471      C1476   1.504       .  S
C1471      C1472   1.403       .  A
C1472      C1473   1.403       .  A
C1472      H1477   1.080       .  S
C1473      C1474   1.414       .  A
C1474      C1478   1.506       .  S
C1475      C1480   1.412       .  A
C1475      C1484   1.404       .  A
C1476      H1492   1.109       .  S
C1476      H1493   1.108       .  S
C1476      H1494   1.111       .  S
C1478      H1489   1.111       .  S
C1478      H1490   1.108       .  S
C1478      H1491   1.111       .  S
C1480      C1485   1.507       .  S
C1480      C1481   1.403       .  A
C1481      C1482   1.404       .  A
C1481      H1486   1.081       .  S
C1482      C1483   1.418       .  A
C1483      C1487   1.508       .  S
C1483      C1484   1.409       .  A
C1484      H1488   1.084       .  S
C1485      H1495   1.111       .  S
C1485      H1496   1.109       .  S
C1485      H1497   1.110       .  S
C1487      H1498   1.107       .  S
C1487      H1499   1.111       .  S
C1487      H1500   1.111       .  S
C1501      C1502   1.400       .  A
C1501      C1506   1.406       .  A
C1501      H1511   1.084       .  S
C1502      C1507   1.486       .  S
C1502      C1503   1.410       .  A
C1503      C1508   1.506       .  S
C1503      C1504   1.408       .  A
C1504      C1505   1.407       .  A
C1504      H1509   1.084       .  S
C1505      C1506   1.417       .  A
C1506      C1510   1.507       .  S
C1507      C1512   1.414       .  A
C1507      C1516   1.401       .  A
C1508      H1524   1.110       .  S
C1508      H1525   1.109       .  S
C1508      H1526   1.111       .  S
C1510      H1521   1.106       .  S
C1510      H1522   1.111       .  S
C1510      H1523   1.110       .  S
C1512      C1517   1.506       .  S
C1512      C1513   1.404       .  A
C1513      C1514   1.404       .  A
C1513      H1518   1.085       .  S
C1514      C1515   1.420       .  A
C1515      C1519   1.508       .  S
C1515      C1516   1.406       .  A
C1516      H1520   1.084       .  S
C1517      H1527   1.110       .  S
C1517      H1528   1.109       .  S
C1517      H1529   1.107       .  S
C1519      H1530   1.111       .  S
C1519      H1531   1.106       .  S
C1519      H1532   1.110       .  S
C1533      C1534   1.401       .  A
C1533      C1538   1.408       .  A
C1533      H1543   1.084       .  S
C1534      C1539   1.489       .  S
C1534      C1535   1.410       .  A
C1535      C1540   1.507       .  S
C1535      C1536   1.404       .  A
C1536      C1537   1.408       .  A
C1536      H1541   1.083       .  S
C1537      C1538   1.424       .  A
C1538      C1542   1.505       .  S
C1539      C1544   1.408       .  A
C1539      C1548   1.400       .  A
C1540      H1556   1.110       .  S
C1540      H1557   1.110       .  S
C1540      H1558   1.111       .  S
C1542      H1553   1.108       .  S
C1542      H1554   1.111       .  S
C1542      H1555   1.104       .  S
C1544      C1549   1.508       .  S
C1544      C1545   1.404       .  A
C1545      C1546   1.410       .  A
C1545      H1550   1.077       .  S
C1546      C1547   1.426       .  A
C1547      C1551   1.506       .  S
C1547      C1548   1.410       .  A
C1548      H1552   1.084       .  S
C1549      H1559   1.111       .  S
C1549      H1560   1.110       .  S
C1549      H1561   1.110       .  S
C1551      H1562   1.111       .  S
C1551      H1563   1.109       .  S
C1551      H1564   1.106       .  S
C1565      C1566   1.397       .  A
C1565      C1570   1.407       .  A
C1565      H1575   1.085       .  S
C1566      C1571   1.490       .  S
C1566      C1567   1.406       .  A
C1567      C1572   1.507       .  S
C1567      C1568   1.408       .  A
C1568      C1569   1.418       .  A
C1568      H1573   1.074       .  S
C1569      C1570   1.433       .  A
C1570      C1574   1.512       .  S
C1571      C1576   1.406       .  A
C1571      C1580   1.398       .  A
C1572      H1588   1.110       .  S
C1572      H1589   1.110       .  S
C1572      H1590   1.111       .  S
C1574      H1585   1.111       .  S
C1574      H1586   1.111       .  S
C1574      H1587   1.101       .  S
C1576      C1581   1.508       .  S
C1576      C1577   1.405       .  A
C1577      C1578   1.416       .  A
C1577      H1582   1.075       .  S
C1578      C1579   1.432       .  A
C1579      C1583   1.511       .  S
C1579      C1580   1.409       .  A
C1580      H1584   1.085       .  S
C1581      H1591   1.111       .  S
C1581      H1592   1.110       .  S
C1581      H1593   1.110       .  S
C1583      H1594   1.110       .  S
C1583      H1595   1.103       .  S
C1583      H1596   1.111       .  S
C1597      C1598   1.399       .  A
C1597      C1602   1.407       .  A
C1597      H1607   1.084       .  S
C1598      C1603   1.473       .  S
C1598      C1599   1.414       .  A
C1599      C1604   1.511       .  S
C1599      C1600   1.393       .  A
C1600      C1601   1.403       .  A
C1600      H1605   1.084       .  S
C1601      C1602   1.420       .  A
C1602      C1606   1.506       .  S
C1603      C1608   1.410       .  A
C1603      C1612   1.399       .  A
C1604      H1620   1.106       .  S
C1604      H1621   1.111       .  S
C1604      H1622   1.110       .  S
C1606      H1617   1.111       .  S
C1606      H1618   1.110       .  S
C1606      H1619   1.110       .  S
C1608      C1613   1.502       .  S
C1608      C1609   1.402       .  A
C1609      C1610   1.399       .  A
C1609      H1614   1.084       .  S
C1610      C1611   1.408       .  A
C1611      C1615   1.504       .  S
C1611      C1612   1.397       .  A
C1612      H1616   1.082       .  S
C1613      H1623   1.110       .  S
C1613      H1624   1.110       .  S
C1613      H1625   1.109       .  S
C1615      H1626   1.110       .  S
C1615      H1627   1.110       .  S
C1615      H1628   1.109       .  S
C1629      C1630   1.402       .  A
C1629      C1634   1.402       .  A
C1629      H1639   1.084       .  S
C1630      C1635   1.475       .  S
C1630      C1631   1.413       .  A
C1631      C1636   1.505       .  S
C1631      C1632   1.399       .  A
C1632      C1633   1.398       .  A
C1632      H1637   1.085       .  S
C1633      C1634   1.409       .  A
C1634      C1638   1.506       .  S
C1635      C1640   1.405       .  A
C1635      C1644   1.398       .  A
C1636      H1652   1.110       .  S
C1636      H1653   1.110       .  S
C1636      H1654   1.108       .  S
C1638      H1649   1.111       .  S
C1638      H1650   1.107       .  S
C1638      H1651   1.110       .  S
C1640      C1645   1.504       .  S
C1640      C1641   1.408       .  A
C1641      C1642   1.412       .  A
C1641      H1646   1.084       .  S
C1642      C1643   1.419       .  A
C1643      C1647   1.509       .  S
C1643      C1644   1.395       .  A
C1644      H1648   1.085       .  S
C1645      H1655   1.111       .  S
C1645      H1656   1.110       .  S
C1645      H1657   1.110       .  S
C1647      H1658   1.110       .  S
C1647      H1659   1.111       .  S
C1647      H1660   1.111       .  S
C1661      C1662   1.403       .  A
C1661      C1666   1.405       .  A
C1661      H1671   1.082       .  S
C1662      C1667   1.480       .  S
C1662      C1663   1.411       .  A
C1663      C1668   1.501       .  S
C1663      C1664   1.399       .  A
C1664      C1665   1.399       .  A
C1664      H1669   1.085       .  S
C1665      C1666   1.408       .  A
C1666      C1670   1.505       .  S
C1667      C1672   1.408       .  A
C1667      C1676   1.401       .  A
C1668      H1684   1.109       .  S
C1668      H1685   1.110       .  S
C1668      H1686   1.109       .  S
C1670      H1681   1.110       .  S
C1670      H1682   1.110       .  S
C1670      H1683   1.110       .  S
C1672      C1677   1.505       .  S
C1672      C1673   1.406       .  A
C1673      C1674   1.411       .  A
C1673      H1678   1.084       .  S
C1674      C1675   1.421       .  A
C1675      C1679   1.510       .  S
C1675      C1676   1.401       .  A
C1676      H1680   1.085       .  S
C1677      H1687   1.110       .  S
C1677      H1688   1.109       .  S
C1677      H1689   1.110       .  S
C1679      H1690   1.109       .  S
C1679      H1691   1.109       .  S
C1679      H1692   1.111       .  S
C1693      C1694   1.404       .  A
C1693      C1698   1.406       .  A
C1693      H1703   1.084       .  S
C1694      C1699   1.482       .  S
C1694      C1695   1.413       .  A
C1695      C1700   1.502       .  S
C1695      C1696   1.399       .  A
C1696      C1697   1.399       .  A
C1696      H1701   1.085       .  S
C1697      C1698   1.413       .  A
C1698      C1702   1.506       .  S
C1699      C1704   1.408       .  A
C1699      C1708   1.399       .  A
C1700      H1716   1.108       .  S
C1700      H1717   1.110       .  S
C1700      H1718   1.106       .  S
C1702      H1713   1.110       .  S
C1702      H1714   1.108       .  S
C1702      H1715   1.109       .  S
C1704      C1709   1.504       .  S
C1704      C1705   1.409       .  A
C1705      C1706   1.411       .  A
C1705      H1710   1.083       .  S
C1706      C1707   1.422       .  A
C1707      C1711   1.509       .  S
C1707      C1708   1.401       .  A
C1708      H1712   1.084       .  S
C1709      H1719   1.111       .  S
C1709      H1720   1.111       .  S
C1709      H1721   1.110       .  S
C1711      H1722   1.111       .  S
C1711      H1723   1.111       .  S
C1711      H1724   1.110       .  S
C1725      C1726   1.401   1_565  A
C1725      C1730   1.410       .  A
C1725      H1735   1.084       .  S
C1726      C1731   1.475       .  S
C1726      C1727   1.413       .  A
C1727      C1732   1.512       .  S
C1727      C1728   1.389       .  A
C1728      C1729   1.403       .  A
C1728      H1733   1.083       .  S
C1729      C1730   1.419   1_545  A
C1730      C1734   1.505       .  S
C1731      C1736   1.409   1_545  A
C1731      C1740   1.400       .  A
C1732      H1748   1.109       .  S
C1732      H1749   1.110   1_545  S
C1732      H1750   1.111       .  S
C1734      H1745   1.111       .  S
C1734      H1746   1.110   1_565  S
C1734      H1747   1.110       .  S
C1736      C1741   1.503       .  S
C1736      C1737   1.402       .  A
C1737      C1738   1.400   1_565  A
C1737      H1742   1.084       .  S
C1738      C1739   1.409       .  A
C1739      C1743   1.504       .  S
C1739      C1740   1.401       .  A
C1740      H1744   1.084       .  S
C1741      H1751   1.107       .  S
C1741      H1752   1.110       .  S
C1741      H1753   1.106       .  S
C1743      H1754   1.109       .  S
C1743      H1755   1.110       .  S
C1743      H1756   1.111       .  S
C1757      C1758   1.399   1_565  A
C1757      C1762   1.398       .  A
C1757      H1767   1.084       .  S
C1758      C1763   1.472       .  S
C1758      C1759   1.410       .  A
C1759      C1764   1.506       .  S
C1759      C1760   1.402       .  A
C1760      C1761   1.401       .  A
C1760      H1765   1.085       .  S
C1761      C1762   1.409   1_545  A
C1762      C1766   1.504       .  S
C1763      C1768   1.403       .  A
C1763      C1772   1.399       .  A
C1764      H1780   1.109       .  S
C1764      H1781   1.110       .  S
C1764      H1782   1.109       .  S
C1766      H1777   1.110       .  S
C1766      H1778   1.110       .  S
C1766      H1779   1.110       .  S
C1768      C1773   1.504       .  S
C1768      C1769   1.404       .  A
C1769      C1770   1.410       .  A
C1769      H1774   1.083   1_545  S
C1770      C1771   1.421       .  A
C1771      C1775   1.509       .  S
C1771      C1772   1.397       .  A
C1772      H1776   1.085       .  S
C1773      H1783   1.111   1_545  S
C1773      H1784   1.110   1_545  S
C1773      H1785   1.110       .  S
C1775      H1786   1.111       .  S
C1775      H1787   1.110   1_545  S
C1775      H1788   1.110       .  S
C1789      C1790   1.401   1_565  A
C1789      C1794   1.400       .  A
C1789      H1799   1.084       .  S
C1790      C1795   1.471       .  S
C1790      C1791   1.409       .  A
C1791      C1796   1.505       .  S
C1791      C1792   1.401       .  A
C1792      C1793   1.401       .  A
C1792      H1797   1.084       .  S
C1793      C1794   1.411   1_545  A
C1794      C1798   1.506       .  S
C1795      C1800   1.405       .  A
C1795      C1804   1.398   1_545  A
C1796      H1812   1.110       .  S
C1796      H1813   1.108       .  S
C1796      H1814   1.105       .  S
C1798      H1809   1.110       .  S
C1798      H1810   1.111       .  S
C1798      H1811   1.109       .  S
C1800      C1805   1.505       .  S
C1800      C1801   1.404       .  A
C1801      C1802   1.409   1_545  A
C1801      H1806   1.083       .  S
C1802      C1803   1.419       .  A
C1803      C1807   1.510       .  S
C1803      C1804   1.395       .  A
C1804      H1808   1.085       .  S
C1805      H1815   1.111       .  S
C1805      H1816   1.110   1_545  S
C1805      H1817   1.108       .  S
C1807      H1818   1.111       .  S
C1807      H1819   1.111       .  S
C1807      H1820   1.109       .  S
C1821      C1822   1.399       .  A
C1821      C1826   1.399       .  A
C1821      H1831   1.084       .  S
C1822      C1827   1.458       .  S
C1822      C1823   1.406   1_565  A
C1823      C1828   1.509       .  S
C1823      C1824   1.390       .  A
C1824      C1825   1.399       .  A
C1824      H1829   1.086       .  S
C1825      C1826   1.414   1_545  A
C1826      C1830   1.507       .  S
C1827      C1832   1.404   1_565  A
C1827      C1836   1.397       .  A
C1828      H1844   1.109       .  S
C1828      H1845   1.109       .  S
C1828      H1846   1.109       .  S
C1830      H1841   1.110       .  S
C1830      H1842   1.111       .  S
C1830      H1843   1.105       .  S
C1832      C1837   1.505       .  S
C1832      C1833   1.397       .  A
C1833      C1834   1.404   1_545  A
C1833      H1838   1.084       .  S
C1834      C1835   1.415       .  A
C1835      C1839   1.510       .  S
C1835      C1836   1.390       .  A
C1836      H1840   1.085       .  S
C1837      H1847   1.111       .  S
C1837      H1848   1.110       .  S
C1837      H1849   1.110       .  S
C1839      H1850   1.111       .  S
C1839      H1851   1.109       .  S
C1839      H1852   1.109       .  S
C1853      C1854   1.397   1_554  A
C1853      C1858   1.390       .  A
C1853      H1863   1.085       .  S
C1854      C1859   1.460       .  S
C1854      C1855   1.406       .  A
C1855      C1860   1.505       .  S
C1855      C1856   1.398       .  A
C1856      C1857   1.404   1_556  A
C1856      H1861   1.084       .  S
C1857      C1858   1.413       .  A
C1858      C1862   1.509       .  S
C1859      C1864   1.410       .  A
C1859      C1868   1.400   1_556  A
C1860      H1876   1.110       .  S
C1860      H1877   1.105       .  S
C1860      H1878   1.111       .  S
C1862      H1873   1.109       .  S
C1862      H1874   1.111       .  S
C1862      H1875   1.110       .  S
C1864      C1869   1.512       .  S
C1864      C1865   1.391       .  A
C1865      C1866   1.400       .  A
C1865      H1870   1.085       .  S
C1866      C1867   1.410   1_556  A
C1867      C1871   1.507       .  S
C1867      C1868   1.400       .  A
C1868      H1872   1.084       .  S
C1869      H1879   1.110       .  S
C1869      H1880   1.109       .  S
C1869      H1881   1.108       .  S
C1871      H1882   1.111       .  S
C1871      H1883   1.111       .  S
C1871      H1884   1.110       .  S
C1885      C1886   1.405       .  A
C1885      C1890   1.397       .  A
C1885      H1895   1.084       .  S
C1886      C1891   1.486       .  S
C1886      C1887   1.415       .  A
C1887      C1892   1.507   1_554  S
C1887      C1888   1.408       .  A
C1888      C1889   1.403       .  A
C1888      H1893   1.084   1_554  S
C1889      C1890   1.411       .  A
C1890      C1894   1.509       .  S
C1891      C1896   1.416       .  A
C1891      C1900   1.405   1_554  A
C1892      H1908   1.107       .  S
C1892      H1909   1.110       .  S
C1892      H1910   1.111       .  S
C1894      H1905   1.111       .  S
C1894      H1906   1.105       .  S
C1894      H1907   1.109       .  S
C1896      C1901   1.507       .  S
C1896      C1897   1.407       .  A
C1897      C1898   1.402   1_554  A
C1897      H1902   1.084       .  S
C1898      C1899   1.408       .  A
C1899      C1903   1.508       .  S
C1899      C1900   1.397       .  A
C1900      H1904   1.083       .  S
C1901      H1911   1.111       .  S
C1901      H1912   1.108       .  S
C1901      H1913   1.110       .  S
C1903      H1914   1.109       .  S
C1903      H1915   1.110       .  S
C1903      H1916   1.111       .  S
C1917      C1918   1.401       .  A
C1917      C1922   1.403       .  A
C1917      H1927   1.084       .  S
C1918      C1923   1.469       .  S
C1918      C1919   1.414       .  A
C1919      C1924   1.511       .  S
C1919      C1920   1.387       .  A
C1920      C1921   1.400       .  A
C1920      H1925   1.084       .  S
C1921      C1922   1.418       .  A
C1922      C1926   1.507       .  S
C1923      C1928   1.412       .  A
C1923      C1932   1.398   1_556  A
C1924      H1940   1.107   1_556  S
C1924      H1941   1.105       .  S
C1924      H1942   1.110       .  S
C1926      H1937   1.111       .  S
C1926      H1938   1.111       .  S
C1926      H1939   1.110   1_556  S
C1928      C1933   1.505       .  S
C1928      C1929   1.401       .  A
C1929      C1930   1.401       .  A
C1929      H1934   1.085       .  S
C1930      C1931   1.410   1_556  A
C1931      C1935   1.503       .  S
C1931      C1932   1.391       .  A
C1932      H1936   1.086       .  S
C1933      H1943   1.111       .  S
C1933      H1944   1.109       .  S
C1933      H1945   1.107       .  S
C1935      H1946   1.109       .  S
C1935      H1947   1.104       .  S
C1935      H1948   1.110       .  S
C1949      C1950   1.398       .  A
C1949      C1954   1.393       .  A
C1949      H1959   1.085       .  S
C1950      C1955   1.476   1_556  S
C1950      C1951   1.407   1_556  A
C1951      C1956   1.503       .  S
C1951      C1952   1.409       .  A
C1952      C1953   1.410   1_554  A
C1952      H1957   1.084       .  S
C1953      C1954   1.420       .  A
C1954      C1958   1.511       .  S
C1955      C1960   1.412   1_554  A
C1955      C1964   1.401       .  A
C1956      H1972   1.110       .  S
C1956      H1973   1.110   1_554  S
C1956      H1974   1.111       .  S
C1958      H1969   1.111       .  S
C1958      H1970   1.108       .  S
C1958      H1971   1.109       .  S
C1960      C1965   1.505       .  S
C1960      C1961   1.404       .  A
C1961      C1962   1.400   1_556  A
C1961      H1966   1.084       .  S
C1962      C1963   1.411       .  A
C1963      C1967   1.506       .  S
C1963      C1964   1.399       .  A
C1964      H1968   1.085       .  S
C1965      H1975   1.111       .  S
C1965      H1976   1.110       .  S
C1965      H1977   1.110       .  S
C1967      H1978   1.110       .  S
C1967      H1979   1.110       .  S
C1967      H1980   1.110       .  S
