geometry optimzed in LAMMPS
_audit_creation_date              2020-11-30 
_audit_creation_method            'lammps2cif' 
_symmetry_space_group_name_H-M    'P1' 
_symmetry_Int_Tables_number       1 
_symmetry_cell_setting            triclinic 
loop_ 
_symmetry_equiv_pos_as_xyz 
  x,y,z 
_cell_length_a                    32.15600774 
_cell_length_b                    23.351439039240574 
_cell_length_c                    40.13323381171443 
_cell_angle_alpha                 90.0215188758216 
_cell_angle_beta                  89.97053583751429 
_cell_angle_gamma                 89.96621661150738 
loop_ 
_atom_site_label 
_atom_site_type_symbol 
_atom_site_fract_x 
_atom_site_fract_y 
_atom_site_fract_z 
_atom_site_charge 
O1          O  0.93295044  0.88853782  0.43582031    -0.75400
O2          O  0.88464305  0.94117305  0.46394536    -0.54300
C3          C  0.89515406  0.90157173  0.44329109     0.78300
O4          O  0.07357554  0.88893149  0.06433500    -0.60000
O5          O  0.12205243  0.93881113  0.03478375    -0.53100
C6          C  0.11143733  0.90068093  0.05629198     0.70300
O7          O  0.93312624  0.88665113  0.06206246    -0.74600
O8          O  0.88463989  0.93967794  0.03439498    -0.55100
C9          C  0.89527623  0.89975406  0.05478219     0.76300
O10         O  0.07303030  0.88977386  0.43359397    -0.59700
O11         O  0.12161259  0.94094664  0.46230028    -0.52800
C12         C  0.11091128  0.90241090  0.44103011     0.72900
Zr13       Zr  0.00314923  0.92044704  0.44924549     2.54700
O14         O  0.00293149  0.81626524  0.44706688    -0.80300
O15         O  0.00152371  0.92942637  0.38879577    -0.93700
Zr16       Zr  0.00337925  0.91826466  0.04832755     2.64700
O17         O  0.00374073  0.81402119  0.04724584    -0.98700
O18         O  0.00144753  0.92117002  0.10890566    -0.80700
O19         O  0.96322258  0.91873187  0.49884765    -0.84100
O20         O  0.04328158  0.91771322  0.49874319    -2.18800
O21         O  0.07447252  0.11800551  0.43441036    -0.67500
O22         O  0.12259334  0.06723494  0.46389223    -0.52000
C23         C  0.11221249  0.10537655  0.44233964     0.71300
O24         O  0.93425152  0.12063798  0.06375439    -0.60400
O25         O  0.88542858  0.06801119  0.03625252    -0.52400
C26         C  0.89631357  0.10758755  0.05677585     0.73100
O27         O  0.07423372  0.11636409  0.06566754    -0.71800
O28         O  0.12254687  0.06637367  0.03592501    -0.50500
C29         C  0.11205198  0.10441837  0.05759477     0.74500
O30         O  0.93411768  0.12174452  0.43599954    -0.67100
O31         O  0.88544265  0.07014375  0.46431669    -0.54300
C32         C  0.89622961  0.10915550  0.44341293     0.72900
Zr33       Zr  0.00402887  0.08962077  0.45029522     2.77500
O34         O  0.00434903  0.19388072  0.44821705    -0.97900
O35         O  0.00326662  0.08263113  0.38976213    -0.78700
Zr36       Zr  0.00404581  0.08745090  0.04979445     2.70100
O37         O  0.00700428  0.19150192  0.05222031    -0.79900
O38         O  0.00099740  0.07586009  0.11008202    -0.99000
Zr39       Zr  0.92392202  0.00491899  0.99958950     2.21500
Zr40       Zr  0.08326918  0.00355222  0.49943971     2.11100
O41         O  0.04374557  0.08982412  0.00003551    -2.47700
O42         O  0.96413630  0.09042515  0.00011229    -0.79700
O43         O  0.04436270  0.00465538  0.44895806    -0.71900
O44         O  0.96304939  0.00323439  0.04996117    -2.32900
O45         O  0.96285259  0.00546486  0.44899431    -2.29100
O46         O  0.04449057  0.00255417  0.04998031    -0.73700
H47         H  0.06097853  0.88435939  0.99850611     0.78300
H48         H  0.94499201  0.00291091  0.06921844     0.79400
H49         H  0.06161588  0.12296075  0.50025916     0.81600
H50         H  0.94470720  0.00593548  0.42982107     0.79200
H51         H  0.02470711  0.94676385  0.11515874     0.42300
H52         H  0.02977475  0.06604047  0.11675677     0.41200
H53         H  0.00487389  0.20373476  0.02866131     0.40900
H54         H  0.02799698  0.20550868  0.46247618     0.38900
H55         H  0.02733224  0.05788652  0.38426713     0.42000
H56         H  0.97194638  0.93661721  0.38322547     0.36800
H57         H  0.00785068  0.80419844  0.47038226     0.42900
H58         H  0.02856626  0.80357953  0.03395797     0.39300
H59         H  0.01337192  0.20320645  0.42525281     0.44200
H60         H  0.00697534  0.89021868  0.38052698     0.43000
H61         H  0.01084948  0.80270522  0.07032104     0.43100
H62         H  0.99657646  0.11507316  0.11877073     0.43400
O63         O  0.57388331  0.61903446  0.18480376    -0.75400
O64         O  0.62204293  0.56877384  0.21450112    -0.54300
C65         C  0.61160599  0.60685435  0.19285482     0.78300
O66         O  0.43315810  0.61822809  0.31451782    -0.60000
O67         O  0.38474738  0.56749352  0.28542160    -0.53100
C68         C  0.39535643  0.60593655  0.30676450     0.70300
O69         O  0.57288541  0.61981738  0.31464563    -0.74600
O70         O  0.62161653  0.56825596  0.28630970    -0.55100
C71         C  0.61077564  0.60731165  0.30724805     0.76300
O72         O  0.43458422  0.61816462  0.18388846    -0.59700
O73         O  0.38570493  0.56774757  0.21268810    -0.52800
C74         C  0.39665576  0.60575187  0.19117213     0.72900
Zr75       Zr  0.50415478  0.58840757  0.20029883     2.54700
O76         O  0.50491809  0.69260155  0.20026059    -0.80300
O77         O  0.50377063  0.58286927  0.13972057    -0.93700
Zr78       Zr  0.50327549  0.58807716  0.29957259     2.64700
O79         O  0.50421744  0.69231910  0.30121486    -0.98700
O80         O  0.50233082  0.58098904  0.36013189    -0.80700
O81         O  0.54369032  0.58975923  0.25013998    -0.84100
O82         O  0.46379285  0.59004848  0.24971697    -2.18800
O83         O  0.43371883  0.39002459  0.18383605    -0.67500
O84         O  0.38526981  0.44146570  0.21256620    -0.52000
C85         C  0.39586228  0.40306473  0.19118236     0.71300
O86         O  0.57300639  0.38627717  0.31341786    -0.60400
O87         O  0.62168546  0.43914635  0.28584772    -0.52400
C88         C  0.61091342  0.39929718  0.30623935     0.73100
O89         O  0.43246830  0.39116587  0.31531319    -0.71800
O90         O  0.38436140  0.44125358  0.28539301    -0.50500
C91         C  0.39470545  0.40371519  0.30734579     0.74500
O92         O  0.57385663  0.38601799  0.18694220    -0.67100
O93         O  0.62215540  0.43984991  0.21426947    -0.54300
C94         C  0.61165545  0.39951699  0.19410332     0.72900
Zr95       Zr  0.50379775  0.41909333  0.20004802     2.77500
O96         O  0.50340464  0.31483854  0.19832490    -0.97900
O97         O  0.50633068  0.42689195  0.13956449    -0.78700
Zr98       Zr  0.50303706  0.41881194  0.29927550     2.70100
O99         O  0.50152862  0.31460109  0.30136163    -0.79900
O100        O  0.50490320  0.42714369  0.35969612    -0.99000
Zr101      Zr  0.58328954  0.50387555  0.25014372     2.21500
Zr102      Zr  0.42391091  0.50409736  0.24933525     2.11100
O103        O  0.46340659  0.41762904  0.24946739    -2.47700
O104        O  0.54342987  0.41799326  0.24982733    -0.79700
O105        O  0.46327833  0.50396273  0.19909747    -0.71900
O106        O  0.54383807  0.50331541  0.30044352    -2.32900
O107        O  0.54462106  0.50361750  0.19951103    -2.29100
O108        O  0.46246510  0.50357293  0.29998402    -0.73700
H109        H  0.44610370  0.62341635  0.24960516     0.78300
H110        H  0.56181389  0.50307539  0.31973000     0.79400
H111        H  0.44549135  0.38453202  0.24938850     0.81600
H112        H  0.56284715  0.50348859  0.18038447     0.79200
H113        H  0.53014023  0.56605879  0.36620590     0.42300
H114        H  0.48296466  0.45549135  0.36504423     0.41200
H115        H  0.49254785  0.30282825  0.27878824     0.40900
H116        H  0.47874841  0.30339100  0.21152184     0.38900
H117        H  0.49070761  0.46236764  0.13445850     0.42000
H118        H  0.53171122  0.56828404  0.13361651     0.36800
H119        H  0.50491799  0.70322730  0.22414623     0.42900
H120        H  0.47939855  0.70436633  0.28841647     0.39300
H121        H  0.49607423  0.30525676  0.17502344     0.44200
H122        H  0.50381336  0.62326569  0.13230316     0.43000
H123        H  0.49754736  0.70208044  0.32463040     0.43100
H124        H  0.49371804  0.39024439  0.36786257     0.43400
C125        C  0.36224396  0.37088849  0.17416330    -0.03500
C126        C  0.32016217  0.38148256  0.18178342    -0.09200
C127        C  0.28866475  0.34955421  0.16655422    -0.16900
C128        C  0.29875424  0.30672457  0.14351861     0.25200
C129        C  0.34039150  0.29630652  0.13549313    -0.18600
C130        C  0.37192879  0.32809234  0.15066441    -0.07500
C131        C  0.26656719  0.27261102  0.12852323    -0.13900
C132        C  0.24004959  0.24299764  0.11614803    -0.13700
C133        C  0.20822091  0.20739840  0.10182498     0.25100
C134        C  0.21867687  0.16418568  0.07912246    -0.19100
C135        C  0.18758215  0.12982633  0.06514535    -0.07500
C136        C  0.14553799  0.13831765  0.07372558    -0.03600
C137        C  0.13553012  0.18165690  0.09682575    -0.08900
C138        C  0.16663785  0.21589207  0.11070632    -0.16600
H139        H  0.31153235  0.41400873  0.19974605     0.11600
H140        H  0.25649325  0.35794969  0.17295279     0.10900
H141        H  0.34852021  0.26323902  0.11769258     0.10800
H142        H  0.40390250  0.31870870  0.14416892     0.11300
H143        H  0.25082717  0.15723512  0.07209893     0.11400
H144        H  0.19645138  0.09711935  0.04737234     0.11400
H145        H  0.10357527  0.18965213  0.10396956     0.11500
H146        H  0.15820947  0.24918514  0.12827655     0.10300
C147        C  0.14593853  0.13817906  0.42607131    -0.03500
C148        C  0.13852202  0.16777631  0.39612950    -0.09200
C149        C  0.16959938  0.20165662  0.38186328    -0.16900
C150        C  0.20836047  0.20671861  0.39740182     0.25200
C151        C  0.21629776  0.17670582  0.42691090    -0.18600
C152        C  0.18536372  0.14240551  0.44110269    -0.07500
C153        C  0.23981043  0.24299519  0.38310101    -0.13900
C154        C  0.26603484  0.27305206  0.37066417    -0.13700
C155        C  0.29779384  0.30759473  0.35536700     0.25100
C156        C  0.33751202  0.31010100  0.36948418    -0.19100
C157        C  0.36891367  0.34185934  0.35405645    -0.07500
C158        C  0.36093291  0.37189245  0.32433404    -0.03600
C159        C  0.32069928  0.36974692  0.31055470    -0.08900
C160        C  0.28940337  0.33759784  0.32593221    -0.16600
H161        H  0.10860675  0.16504937  0.38384720     0.11600
H162        H  0.16323292  0.22442917  0.35890656     0.10900
H163        H  0.24623458  0.18025060  0.43911639     0.11000
H164        H  0.19195436  0.12041228  0.46426691     0.11300
H165        H  0.34433820  0.28702732  0.39225457     0.11400
H166        H  0.39946907  0.34279817  0.36537692     0.11400
H167        H  0.31361313  0.39198586  0.28756825     0.11500
H168        H  0.25878955  0.33574200  0.31471431     0.10300
C169        C  0.14504327  0.86692916  0.07234559    -0.03500
C170        C  0.18713585  0.87925787  0.06578760    -0.09200
C171        C  0.21871695  0.84578368  0.07973598    -0.16900
C172        C  0.20877771  0.79948787  0.10036783     0.25200
C173        C  0.16708601  0.78712175  0.10730046    -0.18600
C174        C  0.13542476  0.82058558  0.09344787    -0.07500
C175        C  0.24134936  0.76472509  0.11442399    -0.13900
C176        C  0.26854521  0.73592012  0.12657014    -0.13700
C177        C  0.30071221  0.70210921  0.14192532     0.25100
C178        C  0.29015255  0.65706559  0.16330243    -0.19100
C179        C  0.32127737  0.62531336  0.17913611    -0.07500
C180        C  0.36350234  0.63819429  0.17374540    -0.03600
C181        C  0.37377310  0.68325023  0.15188391    -0.08900
C182        C  0.34258098  0.71496517  0.13614491    -0.16600
H183        H  0.19574038  0.91451420  0.04968426     0.11600
H184        H  0.25089490  0.85583308  0.07426945     0.10900
H185        H  0.15902708  0.75141585  0.12327900     0.10800
H186        H  0.10342968  0.80965715  0.09896079     0.11300
H187        H  0.25781964  0.64678174  0.16795885     0.11400
H188        H  0.31222157  0.59094341  0.19572222     0.11400
H189        H  0.40590888  0.69447669  0.14714770     0.11500
H190        H  0.35112961  0.74979850  0.11968357     0.10300
C191        C  0.86300444  0.14093733  0.07340237    -0.03500
C192        C  0.82084455  0.12652846  0.06893893    -0.09200
C193        C  0.78959008  0.15895757  0.08416560    -0.16900
C194        C  0.80003961  0.20612449  0.10397601     0.25200
C195        C  0.84177990  0.22064889  0.10868484    -0.18600
C196        C  0.87306850  0.18829401  0.09357957    -0.07500
C197        C  0.76802662  0.23975872  0.11950732    -0.13900
C198        C  0.74134066  0.26809975  0.13261150    -0.13700
C199        C  0.70899765  0.30130577  0.14801926     0.25100
C200        C  0.71899709  0.34634599  0.16956921    -0.19100
C201        C  0.68739355  0.37849764  0.18452267    -0.07500
C202        C  0.64532054  0.36594572  0.17806795    -0.03600
C203        C  0.63571325  0.32047443  0.15632787    -0.08900
C204        C  0.66735734  0.28844710  0.14144482    -0.16600
H205        H  0.81196013  0.09033181  0.05364864     0.11600
H206        H  0.75730800  0.14734822  0.08041824     0.10900
H207        H  0.85015642  0.25709746  0.12398669     0.10800
H208        H  0.90512243  0.20072988  0.09753549     0.11300
H209        H  0.75119302  0.35658521  0.17483213     0.11400
H210        H  0.69595139  0.41306992  0.20114528     0.11400
H211        H  0.60374278  0.30945347  0.15082165     0.11500
H212        H  0.65933337  0.25360109  0.12481297     0.10300
C213        C  0.64404707  0.64082608  0.32381850    -0.03500
C214        C  0.63401136  0.68310124  0.34758056    -0.09200
C215        C  0.66525608  0.71578726  0.36252754    -0.16900
C216        C  0.70691943  0.70677502  0.35398818     0.25200
C217        C  0.71729031  0.66472152  0.33056735    -0.18600
C218        C  0.68611733  0.63191264  0.31558420    -0.07500
C219        C  0.73900894  0.74079825  0.36917710    -0.13900
C220        C  0.76592598  0.76928337  0.38187865    -0.13700
C221        C  0.79821868  0.80299816  0.39702030     0.25100
C222        C  0.83980966  0.79333899  0.38850971    -0.19100
C223        C  0.87129118  0.82564903  0.40338174    -0.07500
C224        C  0.86158949  0.86819637  0.42704426    -0.03600
C225        C  0.81958580  0.87776288  0.43529360    -0.08900
C226        C  0.78815525  0.84531805  0.42037063    -0.16600
H227        H  0.60200650  0.69120779  0.35455478     0.11600
H228        H  0.65689781  0.74822438  0.38065315     0.10900
H229        H  0.74947756  0.65742262  0.32378658     0.10800
H230        H  0.69498957  0.59991794  0.29738035     0.11300
H231        H  0.84793243  0.76069848  0.37044145     0.11400
H232        H  0.90322481  0.81709677  0.39638181     0.11400
H233        H  0.81096511  0.91002738  0.45341638     0.11500
H234        H  0.75602053  0.85311433  0.42712730     0.10300
C235        C  0.64440715  0.36554086  0.32234944    -0.03500
C236        C  0.63467005  0.31810232  0.34257033    -0.09200
C237        C  0.66624775  0.28534411  0.35700155    -0.16900
C238        C  0.70792718  0.29955163  0.35152865     0.25200
C239        C  0.71801454  0.34677910  0.33169275    -0.18600
C240        C  0.68650770  0.37958368  0.31716810    -0.07500
C241        C  0.74031807  0.26577635  0.36639034    -0.13900
C242        C  0.76735356  0.23769557  0.37917475    -0.13700
C243        C  0.79958083  0.20478393  0.39487880     0.25100
C244        C  0.84126249  0.21535635  0.38712207    -0.19100
C245        C  0.87269970  0.18415970  0.40282708    -0.07500
C246        C  0.86281708  0.14187314  0.42656104    -0.03600
C247        C  0.82070677  0.13134540  0.43399964    -0.08900
C248        C  0.78933464  0.16267140  0.41825217    -0.16600
H249        H  0.60266826  0.30592451  0.34705906     0.11600
H250        H  0.65815002  0.24885783  0.37236323     0.10900
H251        H  0.75023273  0.35816934  0.32738414     0.10800
H252        H  0.69517218  0.41578977  0.30181725     0.11300
H253        H  0.84948075  0.24789674  0.36904226     0.11400
H254        H  0.90472055  0.19334509  0.39641091     0.11400
H255        H  0.81194036  0.09911689  0.45207618     0.11500
H256        H  0.75710555  0.15421780  0.42441007     0.10300
C257        C  0.14439668  0.86927382  0.42441990    -0.03500
C258        C  0.18653648  0.88074108  0.43126161    -0.09200
C259        C  0.21791318  0.84776146  0.41661680    -0.16900
C260        C  0.20764897  0.80297969  0.39497206     0.25200
C261        C  0.16594827  0.79151301  0.38776175    -0.18600
C262        C  0.13451923  0.82439774  0.40233134    -0.07500
C263        C  0.23984185  0.76845963  0.38033732    -0.13900
C264        C  0.26669141  0.73932272  0.36805393    -0.13700
C265        C  0.29886934  0.70499665  0.35325708     0.25100
C266        C  0.28854261  0.65749218  0.33368262    -0.19100
C267        C  0.31986480  0.62482670  0.31872596    -0.07500
C268        C  0.36197656  0.63927599  0.32327291    -0.03600
C269        C  0.37195420  0.68692571  0.34326747    -0.08900
C270        C  0.34059255  0.71952378  0.35810606    -0.16600
H271        H  0.19531353  0.91483436  0.44814221     0.11600
H272        H  0.25015321  0.85696246  0.42233676     0.10900
H273        H  0.15770125  0.75691199  0.37102688     0.10800
H274        H  0.10248648  0.81420068  0.39652774     0.11300
H275        H  0.25628003  0.64591419  0.32981428     0.11400
H276        H  0.31107732  0.58844697  0.30354974     0.11400
H277        H  0.40398954  0.69950186  0.34719735     0.11500
H278        H  0.34888962  0.75627293  0.37319371     0.10300
C279        C  0.64519486  0.63944956  0.17613185    -0.03500
C280        C  0.63667808  0.67236010  0.14752377    -0.09200
C281        C  0.66806719  0.70448834  0.13233718    -0.16900
C282        C  0.70830429  0.70442811  0.14556337     0.25200
C283        C  0.71720504  0.67150696  0.17381262    -0.18600
C284        C  0.68591623  0.63908459  0.18896536    -0.07500
C285        C  0.74030068  0.73858710  0.13030368    -0.13900
C286        C  0.76691821  0.76739491  0.11741349    -0.13700
C287        C  0.79888155  0.80131378  0.10193339     0.25100
C288        C  0.83990084  0.79751152  0.11326649    -0.19100
C289        C  0.87118210  0.82959919  0.09795630    -0.07500
C290        C  0.86183555  0.86627054  0.07112705    -0.03600
C291        C  0.82039268  0.87006240  0.06002738    -0.08900
C292        C  0.78916513  0.83767424  0.07532205    -0.16600
H293        H  0.60574993  0.67336492  0.13686661     0.11600
H294        H  0.66088160  0.72968158  0.11041112     0.10900
H295        H  0.74826638  0.67117595  0.18425794     0.10800
H296        H  0.69347403  0.61447658  0.21101493     0.11300
H297        H  0.84775671  0.76954612  0.13386566     0.11400
H298        H  0.90267783  0.82575492  0.10723193     0.11400
H299        H  0.81214270  0.89758780  0.03934575     0.11500
H300        H  0.75748821  0.84082713  0.06631502     0.10300
O301        O  0.93294958  0.88853935  0.93582070    -0.75400
O302        O  0.88464242  0.94117661  0.96394459    -0.54300
C303        C  0.89515327  0.90157421  0.94329105     0.78300
O304        O  0.07357393  0.88892809  0.56433458    -0.60000
O305        O  0.12205160  0.93881370  0.53478745    -0.53100
C306        C  0.11143600  0.90068085  0.55629398     0.70300
O307        O  0.93312522  0.88665740  0.56206644    -0.74600
O308        O  0.88463905  0.93967978  0.53439599    -0.55100
C309        C  0.89527528  0.89975913  0.55478535     0.76300
O310        O  0.07302964  0.88976966  0.93359656    -0.59700
O311        O  0.12161193  0.94094567  0.96230087    -0.52800
C312        C  0.11091058  0.90240769  0.94103219     0.72900
Zr313      Zr  0.00314885  0.92044608  0.94924613     2.54700
O314        O  0.00292605  0.81626385  0.94707397    -0.80300
O315        O  0.00152822  0.92941255  0.88879571    -0.93700
Zr316      Zr  0.00337833  0.91826426  0.54832708     2.64700
O317        O  0.00373170  0.81402074  0.54724224    -0.98700
O318        O  0.00144833  0.92116621  0.60890514    -0.80700
O319        O  0.96322282  0.91873179  0.99884840    -0.84100
O320        O  0.04328163  0.91771381  0.99874340    -2.18800
O321        O  0.07447249  0.11800570  0.93440976    -0.67500
O322        O  0.12259339  0.06723731  0.96389277    -0.52000
C323        C  0.11221246  0.10537827  0.94233981     0.71300
O324        O  0.93425130  0.12064050  0.56375285    -0.60400
O325        O  0.88542825  0.06801229  0.53625195    -0.52400
C326        C  0.89631331  0.10758984  0.55677451     0.73100
O327        O  0.07423382  0.11636592  0.56566678    -0.71800
O328        O  0.12254673  0.06637716  0.53592306    -0.50500
C329        C  0.11205196  0.10442129  0.55759313     0.74500
O330        O  0.93411747  0.12174395  0.93599870    -0.67100
O331        O  0.88544298  0.07014586  0.96431805    -0.54300
C332        C  0.89622956  0.10915626  0.94341332     0.72900
Zr333      Zr  0.00402877  0.08962110  0.95029460     2.77500
O334        O  0.00434876  0.19388128  0.94821849    -0.97900
O335        O  0.00326604  0.08263755  0.88976126    -0.78700
Zr336      Zr  0.00404582  0.08745143  0.54979467     2.70100
O337        O  0.00700549  0.19150267  0.55221870    -0.79900
O338        O  0.00099762  0.07586566  0.61008277    -0.99000
Zr339      Zr  0.92392149  0.00491875  0.49958951     2.21500
Zr340      Zr  0.08326897  0.00355293  0.99943906     2.11100
O341        O  0.04374586  0.08982348  0.50003601    -2.47700
O342        O  0.96413600  0.09042489  0.50011267    -0.79700
O343        O  0.04436215  0.00465508  0.94895733    -0.71900
O344        O  0.96304936  0.00323479  0.54996092    -2.32900
O345        O  0.96285286  0.00546461  0.94899401    -2.29100
O346        O  0.04448999  0.00255368  0.54998082    -0.73700
H347        H  0.06097815  0.88435953  0.49850580     0.78300
H348        H  0.94499225  0.00291178  0.56921811     0.79400
H349        H  0.06161521  0.12296064  0.00025885     0.81600
H350        H  0.94470748  0.00593489  0.92982072     0.79200
H351        H  0.02468641  0.94679759  0.61515703     0.42300
H352        H  0.02977995  0.06608078  0.61676048     0.41200
H353        H  0.00486768  0.20373503  0.52865974     0.40900
H354        H  0.02799871  0.20550856  0.96247616     0.38900
H355        H  0.02731499  0.05786261  0.88426689     0.42000
H356        H  0.97195118  0.93660507  0.88322348     0.36800
H357        H  0.00784101  0.80420077  0.97039058     0.42900
H358        H  0.02855583  0.80357652  0.53395224     0.39300
H359        H  0.01336889  0.20320833  0.92525382     0.44200
H360        H  0.00697839  0.89020320  0.88053019     0.43000
H361        H  0.01084170  0.80270177  0.57031635     0.43100
H362        H  0.99655123  0.11507453  0.61876933     0.43400
O363        O  0.57388433  0.61903562  0.68480381    -0.75400
O364        O  0.62204330  0.56877570  0.71450215    -0.54300
C365        C  0.61160683  0.60685539  0.69285526     0.78300
O366        O  0.43315641  0.61822617  0.81451789    -0.60000
O367        O  0.38474585  0.56749155  0.78542141    -0.53100
C368        C  0.39535467  0.60593405  0.80676472     0.70300
O369        O  0.57288638  0.61981986  0.81464318    -0.74600
O370        O  0.62161770  0.56825433  0.78630984    -0.55100
C371        C  0.61077680  0.60731181  0.80724701     0.76300
O372        O  0.43458539  0.61816309  0.68388534    -0.59700
O373        O  0.38570571  0.56774978  0.71268673    -0.52800
C374        C  0.39665687  0.60575207  0.69116969     0.72900
Zr375      Zr  0.50415558  0.58841000  0.70029889     2.54700
O376        O  0.50491551  0.69260449  0.70026220    -0.80300
O377        O  0.50377547  0.58288141  0.63972039    -0.93700
Zr378      Zr  0.50327510  0.58807971  0.79957198     2.64700
O379        O  0.50421087  0.69232212  0.80120974    -0.98700
O380        O  0.50233570  0.58099700  0.86013167    -0.80700
O381        O  0.54369117  0.58976113  0.75014002    -0.84100
O382        O  0.46379243  0.59004976  0.74971639    -2.18800
O383        O  0.43371998  0.39002511  0.68383428    -0.67500
O384        O  0.38527072  0.44146659  0.71256385    -0.52000
C385        C  0.39586337  0.40306492  0.69118048     0.71300
O386        O  0.57300576  0.38627812  0.81341756    -0.60400
O387        O  0.62168544  0.43914652  0.78584761    -0.52400
C388        C  0.61091299  0.39929731  0.80623909     0.73100
O389        O  0.43246771  0.39116977  0.81531287    -0.71800
O390        O  0.38436048  0.44125258  0.78539030    -0.50500
C391        C  0.39470488  0.40371643  0.80734434     0.74500
O392        O  0.57385522  0.38601380  0.68694401    -0.67100
O393        O  0.62215406  0.43984780  0.71426971    -0.54300
C394        C  0.61165399  0.39951320  0.69410469     0.72900
Zr395      Zr  0.50379782  0.41909421  0.70004854     2.77500
O396        O  0.50340042  0.31483926  0.69833241    -0.97900
O397        O  0.50633762  0.42688402  0.63956491    -0.78700
Zr398      Zr  0.50303646  0.41881423  0.79927553     2.70100
O399        O  0.50152467  0.31460363  0.80136031    -0.79900
O400        O  0.50490237  0.42714222  0.85969636    -0.99000
Zr401      Zr  0.58328955  0.50387622  0.75014367     2.21500
Zr402      Zr  0.42391057  0.50409854  0.74933393     2.11100
O403        O  0.46340614  0.41763047  0.74946739    -2.47700
O404        O  0.54342984  0.41799426  0.74982780    -0.79700
O405        O  0.46327927  0.50396455  0.69909664    -0.71900
O406        O  0.54383736  0.50331749  0.80044316    -2.32900
O407        O  0.54462095  0.50361879  0.69951103    -2.29100
O408        O  0.46246457  0.50357536  0.79998296    -0.73700
H409        H  0.44610239  0.62341753  0.74960457     0.78300
H410        H  0.56181274  0.50307743  0.81972916     0.79400
H411        H  0.44549159  0.38453422  0.74938850     0.81600
H412        H  0.56284706  0.50348954  0.68038425     0.79200
H413        H  0.53013619  0.56603282  0.86620313     0.42300
H414        H  0.48297213  0.45550175  0.86504411     0.41200
H415        H  0.49261937  0.30282975  0.77876795     0.40900
H416        H  0.47874033  0.30339630  0.71152547     0.38900
H417        H  0.49071890  0.46236178  0.63445642     0.42000
H418        H  0.53172079  0.56831333  0.63361592     0.36800
H419        H  0.50469449  0.70323407  0.72414715     0.42900
H420        H  0.47937581  0.70436528  0.78843087     0.39300
H421        H  0.49607606  0.30525351  0.67502995     0.44200
H422        H  0.50380598  0.62327899  0.63230533     0.43000
H423        H  0.49756867  0.70208477  0.82463066     0.43100
H424        H  0.49370598  0.39024910  0.86786194     0.43400
C425        C  0.36224515  0.37088714  0.67416227    -0.03500
C426        C  0.32016342  0.38148100  0.68178267    -0.09200
C427        C  0.28866591  0.34955235  0.66655383    -0.16900
C428        C  0.29875532  0.30672218  0.64351853     0.25200
C429        C  0.34039253  0.29630340  0.63549333    -0.18600
C430        C  0.37192990  0.32808968  0.65066415    -0.07500
C431        C  0.26656835  0.27260883  0.62852305    -0.13900
C432        C  0.24005097  0.24299534  0.61614772    -0.13700
C433        C  0.20822207  0.20739694  0.60182449     0.25100
C434        C  0.21867753  0.16418468  0.57912157    -0.19100
C435        C  0.18758225  0.12982737  0.56514367    -0.07500
C436        C  0.14553816  0.13832012  0.57372371    -0.03600
C437        C  0.13553083  0.18165877  0.59682430    -0.08900
C438        C  0.16663910  0.21589190  0.61070566    -0.16600
H439        H  0.31153370  0.41400767  0.69974501     0.11600
H440        H  0.25649442  0.35794825  0.67295231     0.10900
H441        H  0.34852114  0.26323526  0.61769315     0.10800
H442        H  0.40390356  0.31870570  0.64416870     0.11300
H443        H  0.25082777  0.15723297  0.57209824     0.11400
H444        H  0.19645102  0.09712060  0.54737040     0.11400
H445        H  0.10357606  0.18965493  0.60396799     0.11500
H446        H  0.15821125  0.24918457  0.62827629     0.10300
C447        C  0.14593832  0.13818183  0.92607194    -0.03500
C448        C  0.13852198  0.16777908  0.89613009    -0.09200
C449        C  0.16959947  0.20165941  0.88186395    -0.16900
C450        C  0.20836053  0.20672138  0.89740268     0.25200
C451        C  0.21629735  0.17670922  0.92691200    -0.18600
C452        C  0.18536322  0.14240902  0.94110370    -0.07500
C453        C  0.23981164  0.24299567  0.88310147    -0.13900
C454        C  0.26603753  0.27305002  0.87066455    -0.13700
C455        C  0.29779649  0.30759169  0.85536655     0.25100
C456        C  0.33751496  0.31009917  0.86948318    -0.19100
C457        C  0.36891545  0.34185930  0.85405518    -0.07500
C458        C  0.36093327  0.37189262  0.82433300    -0.03600
C459        C  0.32069949  0.36974550  0.81055419    -0.08900
C460        C  0.28940475  0.33759487  0.82593203    -0.16600
H461        H  0.10860687  0.16505171  0.88384758     0.11600
H462        H  0.16323332  0.22443135  0.85890698     0.10900
H463        H  0.24623409  0.18025401  0.93911759     0.11000
H464        H  0.19195367  0.12041610  0.96426804     0.11300
H465        H  0.34434215  0.28702577  0.89225346     0.11400
H466        H  0.39947106  0.34279937  0.86537528     0.11400
H467        H  0.31361233  0.39198457  0.78756800     0.11500
H468        H  0.25879062  0.33573834  0.81471475     0.10300
C469        C  0.14504185  0.86693005  0.57234835    -0.03500
C470        C  0.18713437  0.87926041  0.56579125    -0.09200
C471        C  0.21871559  0.84578677  0.57973966    -0.16900
C472        C  0.20877664  0.79949011  0.60037085     0.25200
C473        C  0.16708503  0.78712265  0.60730306    -0.18600
C474        C  0.13542354  0.82058584  0.59345026    -0.07500
C475        C  0.24134882  0.76472785  0.61442639    -0.13900
C476        C  0.26854586  0.73592390  0.62657146    -0.13700
C477        C  0.30071330  0.70211276  0.64192563     0.25100
C478        C  0.29015384  0.65707034  0.66330356    -0.19100
C479        C  0.32127874  0.62531662  0.67913589    -0.07500
C480        C  0.36350366  0.63819493  0.67374312    -0.03600
C481        C  0.37377436  0.68324989  0.65188087    -0.08900
C482        C  0.34258202  0.71496641  0.63614314    -0.16600
H483        H  0.19573879  0.91451737  0.54968833     0.11600
H484        H  0.25089350  0.85583714  0.57427357     0.10900
H485        H  0.15902637  0.75141615  0.62328125     0.10800
H486        H  0.10342851  0.80965641  0.59896266     0.11300
H487        H  0.25782097  0.64678844  0.66796159     0.11400
H488        H  0.31222301  0.59094772  0.69572275     0.11400
H489        H  0.40591016  0.69447453  0.64714330     0.11500
H490        H  0.35113043  0.74979895  0.61968117     0.10300
C491        C  0.86300415  0.14094026  0.57340062    -0.03500
C492        C  0.82084438  0.12652982  0.56893830    -0.09200
C493        C  0.78958988  0.15895761  0.58416582    -0.16900
C494        C  0.80003919  0.20612477  0.60397606     0.25200
C495        C  0.84177936  0.22065130  0.60868348    -0.18600
C496        C  0.87306803  0.18829791  0.59357714    -0.07500
C497        C  0.76802593  0.23975683  0.61950855    -0.13900
C498        C  0.74133935  0.26809593  0.63261332    -0.13700
C499        C  0.70899609  0.30130078  0.64802149     0.25100
C500        C  0.71899540  0.34634278  0.66957019    -0.19100
C501        C  0.68739182  0.37849434  0.68452354    -0.07500
C502        C  0.64531886  0.36594068  0.67806995    -0.03600
C503        C  0.63571159  0.32046712  0.65633140    -0.08900
C504        C  0.66735580  0.28843979  0.64144842    -0.16600
H505        H  0.81196006  0.09033249  0.55364852     0.11600
H506        H  0.75730789  0.14734676  0.58041947     0.10900
H507        H  0.85015572  0.25710016  0.62398518     0.10800
H508        H  0.90512188  0.20073510  0.59753206     0.11300
H509        H  0.75119133  0.35658371  0.67483206     0.11400
H510        H  0.69594957  0.41306823  0.70114501     0.11400
H511        H  0.60374112  0.30944462  0.65082621     0.11500
H512        H  0.65933202  0.25359222  0.62481758     0.10300
C513        C  0.64404852  0.64082470  0.82381830    -0.03500
C514        C  0.63401277  0.68309996  0.84758022    -0.09200
C515        C  0.66525756  0.71578385  0.86252861    -0.16900
C516        C  0.70692109  0.70676968  0.85399073     0.25200
C517        C  0.71729221  0.66471567  0.83057024    -0.18600
C518        C  0.68611909  0.63190870  0.81558572    -0.07500
C519        C  0.73901018  0.74079314  0.86918010    -0.13900
C520        C  0.76592614  0.76927977  0.88188200    -0.13700
C521        C  0.79821833  0.80299598  0.89702334     0.25100
C522        C  0.83980922  0.79333761  0.88851242    -0.19100
C523        C  0.87129051  0.82564942  0.90338332    -0.07500
C524        C  0.86158870  0.86819786  0.92704508    -0.03600
C525        C  0.81958509  0.87776341  0.93529506    -0.08900
C526        C  0.78815470  0.84531671  0.92037316    -0.16600
H527        H  0.60200779  0.69120827  0.85455330     0.11600
H528        H  0.65689911  0.74822131  0.88065397     0.10900
H529        H  0.74947964  0.65741526  0.82379055     0.10800
H530        H  0.69499145  0.59991365  0.79738212     0.11300
H531        H  0.84793214  0.76069648  0.87044461     0.11400
H532        H  0.90322408  0.81709768  0.89638303     0.11400
H533        H  0.81096436  0.91002851  0.95341748     0.11500
H534        H  0.75602004  0.85311237  0.92713018     0.10300
C535        C  0.64440634  0.36553996  0.82234915    -0.03500
C536        C  0.63466856  0.31810166  0.84257003    -0.09200
C537        C  0.66624577  0.28534308  0.85700173    -0.16900
C538        C  0.70792542  0.29955001  0.85152934     0.25200
C539        C  0.71801346  0.34677680  0.83169312    -0.18600
C540        C  0.68650712  0.37958172  0.81716799    -0.07500
C541        C  0.74031594  0.26577517  0.86639194    -0.13900
C542        C  0.76735166  0.23769525  0.87917669    -0.13700
C543        C  0.79957950  0.20478441  0.89488058     0.25100
C544        C  0.84126096  0.21535721  0.88712331    -0.19100
C545        C  0.87269865  0.18416060  0.90282777    -0.07500
C546        C  0.86281668  0.14187379  0.92656177    -0.03600
C547        C  0.82070657  0.13134563  0.93400081    -0.08900
C548        C  0.78933398  0.16267151  0.91825389    -0.16600
H549        H  0.60266659  0.30592452  0.84705857     0.11600
H550        H  0.65814747  0.24885722  0.87236355     0.10900
H551        H  0.75023183  0.35816637  0.82738477     0.10800
H552        H  0.69517215  0.41578740  0.80181702     0.11300
H553        H  0.84947868  0.24789766  0.86904338     0.11400
H554        H  0.90471934  0.19334624  0.89641119     0.11400
H555        H  0.81194063  0.09911681  0.95207730     0.11500
H556        H  0.75710506  0.15421738  0.92441211     0.10300
C557        C  0.14439602  0.86927011  0.92442270    -0.03500
C558        C  0.18653576  0.88074004  0.93126301    -0.09200
C559        C  0.21791273  0.84776226  0.91661718    -0.16900
C560        C  0.20764868  0.80297950  0.89497304     0.25200
C561        C  0.16594797  0.79150949  0.88776474    -0.18600
C562        C  0.13451872  0.82439243  0.90233525    -0.07500
C563        C  0.23984152  0.76846045  0.88033752    -0.13900
C564        C  0.26669023  0.73932224  0.86805398    -0.13700
C565        C  0.29886764  0.70499425  0.85325790     0.25100
C566        C  0.28854060  0.65748870  0.83368437    -0.19100
C567        C  0.31986269  0.62482271  0.81872771    -0.07500
C568        C  0.36197456  0.63927252  0.82327384    -0.03600
C569        C  0.37195230  0.68692252  0.84326810    -0.08900
C570        C  0.34059088  0.71952108  0.85810657    -0.16600
H571        H  0.19531265  0.91483445  0.94814292     0.11600
H572        H  0.25015277  0.85696545  0.92233587     0.10900
H573        H  0.15770113  0.75690732  0.87103063     0.10800
H574        H  0.10248597  0.81419325  0.89653290     0.11300
H575        H  0.25627794  0.64591063  0.82981647     0.11400
H576        H  0.31107504  0.58844254  0.80355193     0.11400
H577        H  0.40398762  0.69949894  0.84719758     0.11500
H578        H  0.34888819  0.75627083  0.87319365     0.10300
C579        C  0.64519610  0.63944872  0.67613169    -0.03500
C580        C  0.63667930  0.67235987  0.64752384    -0.09200
C581        C  0.66806886  0.70448626  0.63233665    -0.16900
C582        C  0.70830636  0.70442342  0.64556195     0.25200
C583        C  0.71720737  0.67150079  0.67381055    -0.18600
C584        C  0.68591805  0.63908049  0.68896401    -0.07500
C585        C  0.74030232  0.73858386  0.63030313    -0.13900
C586        C  0.76691897  0.76739478  0.61741436    -0.13700
C587        C  0.79888134  0.80131758  0.60193618     0.25100
C588        C  0.83990017  0.79751807  0.61327057    -0.19100
C589        C  0.87118108  0.82960724  0.59796107    -0.07500
C590        C  0.86183455  0.86627730  0.57113123    -0.03600
C591        C  0.82039186  0.87006772  0.56003096    -0.08900
C592        C  0.78916467  0.83767807  0.57532496    -0.16600
H593        H  0.60575074  0.67336696  0.63686749     0.11600
H594        H  0.66088318  0.72968076  0.61041111     0.10900
H595        H  0.74826909  0.67116786  0.68425513     0.10800
H596        H  0.69347593  0.61447174  0.71101329     0.11300
H597        H  0.84775608  0.76955293  0.63386985     0.11400
H598        H  0.90267664  0.82576425  0.60723727     0.11400
H599        H  0.81214190  0.89759227  0.53934895     0.11500
H600        H  0.75748802  0.84082903  0.56631710     0.10300
loop_ 
_geom_bond_atom_site_label_1 
_geom_bond_atom_site_label_2 
_geom_bond_distance 
_geom_bond_site_symmetry_2 
_ccdc_geom_bond_type 
O1          Zr13   2.438   1_655  S
O1            C3   1.288       .  A
O2         Zr339   2.421   1_565  S
O2            C3   1.287       .  A
C3          C224   1.483       .  S
O4          Zr16   2.445       .  S
O4            C6   1.289       .  A
O5         Zr340   2.420   1_564  S
O5            C6   1.286       .  A
C6          C169   1.485       .  S
O7          Zr16   2.440   1_655  S
O7            C9   1.289       .  A
O8          Zr39   2.423   1_564  S
O8            C9   1.287       .  A
C9          C290   1.483       .  S
O10         Zr13   2.440       .  S
O10          C12   1.289       .  A
O11         Zr40   2.424   1_565  S
O11          C12   1.287       .  A
C12         C257   1.483       .  S
Zr13         O14   2.434       .  S
Zr13         O15   2.436       .  S
Zr13         O19   2.369   1_455  S
Zr13         O20   2.370       .  S
Zr13         O43   2.372   1_565  S
Zr13         O45   2.370   1_465  S
O14          H57   0.990       .  S
O15          H56   0.991   1_455  S
O15          H60   0.989       .  S
Zr16         O17   2.435       .  S
Zr16         O18   2.433       .  S
Zr16         O44   2.371   1_465  S
Zr16         O46   2.373   1_565  S
Zr16        O320   2.367   1_554  S
Zr16        O319   2.369   1_454  S
O17          H58   0.990       .  S
O17          H61   0.990       .  S
O18          H51   0.990       .  S
O19        Zr316   2.369   1_655  S
O19        Zr339   2.376   1_565  S
O20         Zr40   2.382   1_565  S
O20        Zr316   2.367       .  S
O20         H347   0.964       .  S
O21         Zr33   2.445       .  S
O21          C23   1.289       .  A
O22         Zr40   2.418       .  S
O22          C23   1.286       .  A
C23         C147   1.480       .  S
O24         Zr36   2.439   1_655  S
O24          C26   1.289       .  A
O25         Zr39   2.421   1_554  S
O25          C26   1.287       .  A
C26         C191   1.482       .  S
O27         Zr36   2.441       .  S
O27          C29   1.289       .  A
O28        Zr340   2.428   1_554  S
O28          C29   1.288       .  A
C29         C136   1.485       .  S
O30         Zr33   2.438   1_655  S
O30          C32   1.288       .  A
O31        Zr339   2.420       .  S
O31          C32   1.286       .  A
C32         C246   1.482       .  S
Zr33         O34   2.436       .  S
Zr33         O35   2.435       .  S
Zr33         O45   2.371   1_455  S
Zr33         O43   2.370       .  S
Zr33        O341   2.370       .  S
Zr33        O342   2.375   1_455  S
O34          H54   0.990       .  S
O34          H59   0.990       .  S
O35          H55   0.990       .  S
Zr36         O37   2.434       .  S
Zr36         O38   2.437       .  S
Zr36         O42   2.373   1_455  S
Zr36         O41   2.370       .  S
Zr36         O46   2.370       .  S
Zr36         O44   2.368   1_455  S
O37          H53   0.990       .  S
O38          H52   0.990       .  S
O38          H62   0.990   1_455  S
Zr39        O302   2.421   1_545  S
Zr39        O331   2.420       .  S
Zr39         O42   2.380   1_556  S
Zr39         O44   2.382   1_556  S
Zr39        O319   2.376   1_545  S
Zr39        O345   2.385       .  S
Zr40        O305   2.420   1_545  S
Zr40        O328   2.428       .  S
Zr40         O43   2.382       .  S
Zr40        O341   2.381       .  S
Zr40        O346   2.381       .  S
O41        Zr333   2.370   1_554  S
O41        Zr340   2.381   1_554  S
O41         H349   0.964       .  S
O42        Zr333   2.375   1_654  S
O44          H48   0.966       .  S
O45        Zr339   2.385       .  S
O45          H50   0.966       .  S
O46        Zr340   2.381   1_554  S
H47         O320   0.964       .  S
H49         O341   0.964       .  S
O63         Zr75   2.434       .  S
O63          C65   1.287       .  A
O64        Zr101   2.429       .  S
O64          C65   1.288       .  A
C65         C279   1.482       .  S
O66         Zr78   2.436       .  S
O66          C68   1.287       .  A
O67        Zr102   2.423       .  S
O67          C68   1.287       .  A
C68         C268   1.482       .  S
O69         Zr78   2.435       .  S
O69          C71   1.287       .  A
O70        Zr101   2.427       .  S
O70          C71   1.288       .  A
C71         C213   1.483       .  S
O72         Zr75   2.433       .  S
O72          C74   1.287       .  A
O73        Zr102   2.425       .  S
O73          C74   1.288       .  A
C74         C180   1.483       .  S
Zr75         O76   2.433       .  S
Zr75         O77   2.435       .  S
Zr75         O81   2.371       .  S
Zr75         O82   2.370       .  S
Zr75        O105   2.371       .  S
Zr75        O107   2.369       .  S
O76         H119   0.990       .  S
O77         H118   0.991       .  S
O77         H122   0.989       .  S
Zr78         O79   2.435       .  S
Zr78         O80   2.436       .  S
Zr78         O82   2.371       .  S
Zr78         O81   2.371       .  S
Zr78        O106   2.370       .  S
Zr78        O108   2.371       .  S
O79         H120   0.990       .  S
O79         H123   0.990       .  S
O80         H113   0.990       .  S
O81        Zr101   2.375       .  S
O82        Zr102   2.383       .  S
O82         H109   0.964       .  S
O83         Zr95   2.442       .  S
O83          C85   1.289       .  A
O84        Zr102   2.421       .  S
O84          C85   1.287       .  A
C85         C125   1.484       .  S
O86         Zr98   2.442       .  S
O86          C88   1.289       .  A
O87        Zr101   2.421       .  S
O87          C88   1.287       .  A
C88         C235   1.483       .  S
O89         Zr98   2.446       .  S
O89          C91   1.289       .  A
O90        Zr102   2.422       .  S
O90          C91   1.287       .  A
C91         C158   1.482       .  S
O92         Zr95   2.438       .  S
O92          C94   1.288       .  A
O93        Zr101   2.422       .  S
O93          C94   1.287       .  A
C94         C202   1.483       .  S
Zr95         O96   2.435       .  S
Zr95         O97   2.436       .  S
Zr95        O103   2.370       .  S
Zr95        O104   2.370       .  S
Zr95        O107   2.371       .  S
Zr95        O105   2.371       .  S
O96         H116   0.990       .  S
O96         H121   0.990       .  S
O97         H117   0.990       .  S
Zr98         O99   2.435       .  S
Zr98        O100   2.433       .  S
Zr98        O104   2.371       .  S
Zr98        O103   2.371       .  S
Zr98        O108   2.370       .  S
Zr98        O106   2.371       .  S
O99         H115   0.990       .  S
O100        H114   0.991       .  S
O100        H124   0.990       .  S
Zr101       O104   2.381       .  S
Zr101       O106   2.384       .  S
Zr101       O107   2.383       .  S
Zr102       O103   2.385       .  S
Zr102       O105   2.380       .  S
Zr102       O108   2.382       .  S
O103        H111   0.964       .  S
O106        H110   0.966       .  S
O107        H112   0.966       .  S
C125        C126   1.409       .  A
C125        C130   1.408       .  A
C126        C127   1.399       .  A
C126        H139   1.083       .  S
C127        C128   1.400       .  A
C127        H140   1.084       .  S
C128        C129   1.398       .  A
C128        C131   1.438       .  S
C129        C130   1.397       .  A
C129        H141   1.084       .  S
C130        H142   1.083       .  S
C131        C132   1.205       .  T
C132        C133   1.439       .  S
C133        C134   1.400       .  A
C133        C138   1.398       .  A
C134        C135   1.400       .  A
C134        H143   1.084       .  S
C135        C136   1.409       .  A
C135        H144   1.083       .  S
C136        C137   1.409       .  A
C137        C138   1.397       .  A
C137        H145   1.083       .  S
C138        H146   1.084       .  S
C147        C148   1.407       .  A
C147        C152   1.408       .  A
C148        C149   1.398       .  A
C148        H161   1.083       .  S
C149        C150   1.399       .  A
C149        H162   1.083       .  S
C150        C151   1.400       .  A
C150        C153   1.439       .  S
C151        C152   1.399       .  A
C151        H163   1.084       .  S
C152        H164   1.083       .  S
C153        C154   1.206       .  T
C154        C155   1.439       .  S
C155        C156   1.399       .  A
C155        C160   1.400       .  A
C156        C157   1.398       .  A
C156        H165   1.084       .  S
C157        C158   1.408       .  A
C157        H166   1.083       .  S
C158        C159   1.408       .  A
C159        C160   1.399       .  A
C159        H167   1.083       .  S
C160        H168   1.084       .  S
C169        C170   1.409       .  A
C169        C174   1.409       .  A
C170        C171   1.398       .  A
C170        H183   1.083       .  S
C171        C172   1.399       .  A
C171        H184   1.083       .  S
C172        C173   1.399       .  A
C172        C175   1.440       .  S
C173        C174   1.399       .  A
C173        H185   1.084       .  S
C174        H186   1.083       .  S
C175        C176   1.206       .  T
C176        C177   1.440       .  S
C177        C178   1.399       .  A
C177        C182   1.399       .  A
C178        C179   1.398       .  A
C178        H187   1.083       .  S
C179        C180   1.408       .  A
C179        H188   1.083       .  S
C180        C181   1.409       .  A
C181        C182   1.398       .  A
C181        H189   1.083       .  S
C182        H190   1.084       .  S
C191        C192   1.409       .  A
C191        C196   1.408       .  A
C192        C193   1.398       .  A
C192        H205   1.083       .  S
C193        C194   1.399       .  A
C193        H206   1.084       .  S
C194        C195   1.397       .  A
C194        C197   1.436       .  S
C195        C196   1.396       .  A
C195        H207   1.084       .  S
C196        H208   1.083       .  S
C197        C198   1.204       .  T
C198        C199   1.436       .  S
C199        C200   1.399       .  A
C199        C204   1.398       .  A
C200        C201   1.398       .  A
C200        H209   1.084       .  S
C201        C202   1.409       .  A
C201        H210   1.083       .  S
C202        C203   1.409       .  A
C203        C204   1.396       .  A
C203        H211   1.083       .  S
C204        H212   1.084       .  S
C213        C214   1.410       .  A
C213        C218   1.408       .  A
C214        C215   1.398       .  A
C214        H227   1.083       .  S
C215        C216   1.398       .  A
C215        H228   1.084       .  S
C216        C217   1.399       .  A
C216        C219   1.438       .  S
C217        C218   1.398       .  A
C217        H229   1.083       .  S
C218        H230   1.083       .  S
C219        C220   1.205       .  T
C220        C221   1.438       .  S
C221        C222   1.398       .  A
C221        C226   1.399       .  A
C222        C223   1.397       .  A
C222        H231   1.084       .  S
C223        C224   1.409       .  A
C223        H232   1.083       .  S
C224        C225   1.408       .  A
C225        C226   1.398       .  A
C225        H233   1.083       .  S
C226        H234   1.083       .  S
C235        C236   1.409       .  A
C235        C240   1.408       .  A
C236        C237   1.397       .  A
C236        H249   1.083       .  S
C237        C238   1.398       .  A
C237        H250   1.084       .  S
C238        C239   1.399       .  A
C238        C241   1.436       .  S
C239        C240   1.398       .  A
C239        H251   1.084       .  S
C240        H252   1.083       .  S
C241        C242   1.204       .  T
C242        C243   1.436       .  S
C243        C244   1.398       .  A
C243        C248   1.399       .  A
C244        C245   1.396       .  A
C244        H253   1.084       .  S
C245        C246   1.409       .  A
C245        H254   1.083       .  S
C246        C247   1.408       .  A
C247        C248   1.397       .  A
C247        H255   1.083       .  S
C248        H256   1.084       .  S
C257        C258   1.409       .  A
C257        C262   1.409       .  A
C258        C259   1.398       .  A
C258        H271   1.083       .  S
C259        C260   1.399       .  A
C259        H272   1.084       .  S
C260        C261   1.398       .  A
C260        C263   1.437       .  S
C261        C262   1.397       .  A
C261        H273   1.084       .  S
C262        H274   1.083       .  S
C263        C264   1.204       .  T
C264        C265   1.437       .  S
C265        C266   1.399       .  A
C265        C270   1.398       .  A
C266        C267   1.398       .  A
C266        H275   1.083       .  S
C267        C268   1.408       .  A
C267        H276   1.083       .  S
C268        C269   1.409       .  A
C269        C270   1.396       .  A
C269        H277   1.083       .  S
C270        H278   1.084       .  S
C279        C280   1.409       .  A
C279        C284   1.407       .  A
C280        C281   1.398       .  A
C280        H293   1.083       .  S
C281        C282   1.399       .  A
C281        H294   1.084       .  S
C282        C283   1.400       .  A
C282        C285   1.439       .  S
C283        C284   1.399       .  A
C283        H295   1.083       .  S
C284        H296   1.083       .  S
C285        C286   1.205       .  T
C286        C287   1.439       .  S
C287        C288   1.398       .  A
C287        C292   1.400       .  A
C288        C289   1.397       .  A
C288        H297   1.084       .  S
C289        C290   1.408       .  A
C289        H298   1.083       .  S
C290        C291   1.408       .  A
C291        C292   1.399       .  A
C291        H299   1.083       .  S
C292        H300   1.083       .  S
O301       Zr313   2.438   1_655  S
O301        C303   1.288       .  A
O302        C303   1.287       .  A
C303        C524   1.483       .  S
O304       Zr316   2.445       .  S
O304        C306   1.289       .  A
O305        C306   1.286       .  A
C306        C469   1.485       .  S
O307       Zr316   2.440   1_655  S
O307        C309   1.289       .  A
O308       Zr339   2.423   1_565  S
O308        C309   1.287       .  A
C309        C590   1.483       .  S
O310       Zr313   2.440       .  S
O310        C312   1.289       .  A
O311       Zr340   2.424   1_565  S
O311        C312   1.287       .  A
C312        C557   1.483       .  S
Zr313       O314   2.434       .  S
Zr313       O315   2.436       .  S
Zr313       O319   2.369   1_455  S
Zr313       O320   2.370       .  S
Zr313       O343   2.372   1_565  S
Zr313       O345   2.370   1_465  S
O314        H357   0.990       .  S
O315        H356   0.991   1_455  S
O315        H360   0.989       .  S
Zr316       O317   2.435       .  S
Zr316       O318   2.433       .  S
Zr316       O344   2.371   1_465  S
Zr316       O346   2.373   1_565  S
O317        H358   0.990       .  S
O317        H361   0.990       .  S
O318        H351   0.990       .  S
O320       Zr340   2.382   1_565  S
O321       Zr333   2.445       .  S
O321        C323   1.289       .  A
O322       Zr340   2.418       .  S
O322        C323   1.286       .  A
C323        C447   1.480       .  S
O324       Zr336   2.439   1_655  S
O324        C326   1.289       .  A
O325       Zr339   2.421       .  S
O325        C326   1.287       .  A
C326        C491   1.482       .  S
O327       Zr336   2.441       .  S
O327        C329   1.289       .  A
O328        C329   1.288       .  A
C329        C436   1.485       .  S
O330       Zr333   2.438   1_655  S
O330        C332   1.288       .  A
O331        C332   1.286       .  A
C332        C546   1.482       .  S
Zr333       O334   2.436       .  S
Zr333       O335   2.435       .  S
Zr333       O345   2.371   1_455  S
Zr333       O343   2.370       .  S
O334        H354   0.990       .  S
O334        H359   0.990       .  S
O335        H355   0.990       .  S
Zr336       O337   2.434       .  S
Zr336       O338   2.437       .  S
Zr336       O342   2.373   1_455  S
Zr336       O341   2.370       .  S
Zr336       O346   2.370       .  S
Zr336       O344   2.368   1_455  S
O337        H353   0.990       .  S
O338        H352   0.990       .  S
O338        H362   0.990   1_455  S
Zr339       O342   2.380       .  S
Zr339       O344   2.382       .  S
Zr340       O343   2.382       .  S
O344        H348   0.966       .  S
O345        H350   0.966       .  S
O363       Zr375   2.434       .  S
O363        C365   1.287       .  A
O364       Zr401   2.429       .  S
O364        C365   1.288       .  A
C365        C579   1.482       .  S
O366       Zr378   2.436       .  S
O366        C368   1.287       .  A
O367       Zr402   2.423       .  S
O367        C368   1.287       .  A
C368        C568   1.482       .  S
O369       Zr378   2.435       .  S
O369        C371   1.287       .  A
O370       Zr401   2.427       .  S
O370        C371   1.288       .  A
C371        C513   1.483       .  S
O372       Zr375   2.433       .  S
O372        C374   1.287       .  A
O373       Zr402   2.425       .  S
O373        C374   1.288       .  A
C374        C480   1.483       .  S
Zr375       O376   2.433       .  S
Zr375       O377   2.435       .  S
Zr375       O381   2.371       .  S
Zr375       O382   2.370       .  S
Zr375       O405   2.371       .  S
Zr375       O407   2.369       .  S
O376        H419   0.990       .  S
O377        H418   0.991       .  S
O377        H422   0.989       .  S
Zr378       O379   2.435       .  S
Zr378       O380   2.436       .  S
Zr378       O382   2.371       .  S
Zr378       O381   2.371       .  S
Zr378       O406   2.370       .  S
Zr378       O408   2.371       .  S
O379        H420   0.990       .  S
O379        H423   0.990       .  S
O380        H413   0.990       .  S
O381       Zr401   2.375       .  S
O382       Zr402   2.383       .  S
O382        H409   0.964       .  S
O383       Zr395   2.442       .  S
O383        C385   1.289       .  A
O384       Zr402   2.421       .  S
O384        C385   1.287       .  A
C385        C425   1.484       .  S
O386       Zr398   2.442       .  S
O386        C388   1.289       .  A
O387       Zr401   2.421       .  S
O387        C388   1.287       .  A
C388        C535   1.483       .  S
O389       Zr398   2.446       .  S
O389        C391   1.289       .  A
O390       Zr402   2.422       .  S
O390        C391   1.287       .  A
C391        C458   1.482       .  S
O392       Zr395   2.438       .  S
O392        C394   1.288       .  A
O393       Zr401   2.422       .  S
O393        C394   1.287       .  A
C394        C502   1.483       .  S
Zr395       O396   2.435       .  S
Zr395       O397   2.436       .  S
Zr395       O403   2.370       .  S
Zr395       O404   2.370       .  S
Zr395       O407   2.371       .  S
Zr395       O405   2.371       .  S
O396        H416   0.990       .  S
O396        H421   0.990       .  S
O397        H417   0.990       .  S
Zr398       O399   2.435       .  S
Zr398       O400   2.433       .  S
Zr398       O404   2.371       .  S
Zr398       O403   2.371       .  S
Zr398       O408   2.370       .  S
Zr398       O406   2.371       .  S
O399        H415   0.990       .  S
O400        H414   0.991       .  S
O400        H424   0.990       .  S
Zr401       O404   2.381       .  S
Zr401       O406   2.384       .  S
Zr401       O407   2.383       .  S
Zr402       O403   2.385       .  S
Zr402       O405   2.380       .  S
Zr402       O408   2.382       .  S
O403        H411   0.964       .  S
O406        H410   0.966       .  S
O407        H412   0.966       .  S
C425        C426   1.409       .  A
C425        C430   1.408       .  A
C426        C427   1.399       .  A
C426        H439   1.083       .  S
C427        C428   1.400       .  A
C427        H440   1.084       .  S
C428        C429   1.398       .  A
C428        C431   1.438       .  S
C429        C430   1.397       .  A
C429        H441   1.084       .  S
C430        H442   1.083       .  S
C431        C432   1.205       .  T
C432        C433   1.439       .  S
C433        C434   1.400       .  A
C433        C438   1.398       .  A
C434        C435   1.400       .  A
C434        H443   1.084       .  S
C435        C436   1.409       .  A
C435        H444   1.083       .  S
C436        C437   1.409       .  A
C437        C438   1.397       .  A
C437        H445   1.083       .  S
C438        H446   1.084       .  S
C447        C448   1.407       .  A
C447        C452   1.408       .  A
C448        C449   1.398       .  A
C448        H461   1.083       .  S
C449        C450   1.399       .  A
C449        H462   1.083       .  S
C450        C451   1.400       .  A
C450        C453   1.439       .  S
C451        C452   1.399       .  A
C451        H463   1.084       .  S
C452        H464   1.083       .  S
C453        C454   1.206       .  T
C454        C455   1.439       .  S
C455        C456   1.399       .  A
C455        C460   1.400       .  A
C456        C457   1.398       .  A
C456        H465   1.084       .  S
C457        C458   1.408       .  A
C457        H466   1.083       .  S
C458        C459   1.408       .  A
C459        C460   1.399       .  A
C459        H467   1.083       .  S
C460        H468   1.084       .  S
C469        C470   1.409       .  A
C469        C474   1.409       .  A
C470        C471   1.398       .  A
C470        H483   1.083       .  S
C471        C472   1.399       .  A
C471        H484   1.083       .  S
C472        C473   1.399       .  A
C472        C475   1.440       .  S
C473        C474   1.399       .  A
C473        H485   1.084       .  S
C474        H486   1.083       .  S
C475        C476   1.206       .  T
C476        C477   1.440       .  S
C477        C478   1.399       .  A
C477        C482   1.399       .  A
C478        C479   1.398       .  A
C478        H487   1.083       .  S
C479        C480   1.408       .  A
C479        H488   1.083       .  S
C480        C481   1.409       .  A
C481        C482   1.398       .  A
C481        H489   1.083       .  S
C482        H490   1.084       .  S
C491        C492   1.409       .  A
C491        C496   1.408       .  A
C492        C493   1.398       .  A
C492        H505   1.083       .  S
C493        C494   1.399       .  A
C493        H506   1.084       .  S
C494        C495   1.397       .  A
C494        C497   1.436       .  S
C495        C496   1.396       .  A
C495        H507   1.084       .  S
C496        H508   1.083       .  S
C497        C498   1.204       .  T
C498        C499   1.436       .  S
C499        C500   1.399       .  A
C499        C504   1.398       .  A
C500        C501   1.398       .  A
C500        H509   1.084       .  S
C501        C502   1.409       .  A
C501        H510   1.083       .  S
C502        C503   1.409       .  A
C503        C504   1.396       .  A
C503        H511   1.083       .  S
C504        H512   1.084       .  S
C513        C514   1.410       .  A
C513        C518   1.408       .  A
C514        C515   1.398       .  A
C514        H527   1.083       .  S
C515        C516   1.398       .  A
C515        H528   1.084       .  S
C516        C517   1.399       .  A
C516        C519   1.438       .  S
C517        C518   1.398       .  A
C517        H529   1.083       .  S
C518        H530   1.083       .  S
C519        C520   1.205       .  T
C520        C521   1.438       .  S
C521        C522   1.398       .  A
C521        C526   1.399       .  A
C522        C523   1.397       .  A
C522        H531   1.084       .  S
C523        C524   1.409       .  A
C523        H532   1.083       .  S
C524        C525   1.408       .  A
C525        C526   1.398       .  A
C525        H533   1.083       .  S
C526        H534   1.083       .  S
C535        C536   1.409       .  A
C535        C540   1.408       .  A
C536        C537   1.397       .  A
C536        H549   1.083       .  S
C537        C538   1.398       .  A
C537        H550   1.084       .  S
C538        C539   1.399       .  A
C538        C541   1.436       .  S
C539        C540   1.398       .  A
C539        H551   1.084       .  S
C540        H552   1.083       .  S
C541        C542   1.204       .  T
C542        C543   1.436       .  S
C543        C544   1.398       .  A
C543        C548   1.399       .  A
C544        C545   1.396       .  A
C544        H553   1.084       .  S
C545        C546   1.409       .  A
C545        H554   1.083       .  S
C546        C547   1.408       .  A
C547        C548   1.397       .  A
C547        H555   1.083       .  S
C548        H556   1.084       .  S
C557        C558   1.409       .  A
C557        C562   1.409       .  A
C558        C559   1.398       .  A
C558        H571   1.083       .  S
C559        C560   1.399       .  A
C559        H572   1.084       .  S
C560        C561   1.398       .  A
C560        C563   1.437       .  S
C561        C562   1.397       .  A
C561        H573   1.084       .  S
C562        H574   1.083       .  S
C563        C564   1.204       .  T
C564        C565   1.437       .  S
C565        C566   1.399       .  A
C565        C570   1.398       .  A
C566        C567   1.398       .  A
C566        H575   1.083       .  S
C567        C568   1.408       .  A
C567        H576   1.083       .  S
C568        C569   1.409       .  A
C569        C570   1.396       .  A
C569        H577   1.083       .  S
C570        H578   1.084       .  S
C579        C580   1.409       .  A
C579        C584   1.407       .  A
C580        C581   1.398       .  A
C580        H593   1.083       .  S
C581        C582   1.399       .  A
C581        H594   1.084       .  S
C582        C583   1.400       .  A
C582        C585   1.439       .  S
C583        C584   1.399       .  A
C583        H595   1.083       .  S
C584        H596   1.083       .  S
C585        C586   1.205       .  T
C586        C587   1.439       .  S
C587        C588   1.398       .  A
C587        C592   1.400       .  A
C588        C589   1.397       .  A
C588        H597   1.084       .  S
C589        C590   1.408       .  A
C589        H598   1.083       .  S
C590        C591   1.408       .  A
C591        C592   1.399       .  A
C591        H599   1.083       .  S
C592        H600   1.083       .  S
