geometry optimzed in LAMMPS
_audit_creation_date              2020-11-30 
_audit_creation_method            'lammps2cif' 
_symmetry_space_group_name_H-M    'P1' 
_symmetry_Int_Tables_number       1 
_symmetry_cell_setting            triclinic 
loop_ 
_symmetry_equiv_pos_as_xyz 
  x,y,z 
_cell_length_a                    56.49989049 
_cell_length_b                    55.95719573462149 
_cell_length_c                    28.99993576005675 
_cell_angle_alpha                 89.78128114874369 
_cell_angle_beta                  89.3873179012411 
_cell_angle_gamma                 90.3645146969041 
loop_ 
_atom_site_label 
_atom_site_type_symbol 
_atom_site_fract_x 
_atom_site_fract_y 
_atom_site_fract_z 
_atom_site_charge 
Zr1        Zr  0.41912143  0.56378479  0.11280489     2.17500
O2          O  0.41141552  0.53561227  0.05062237    -0.51800
O3          O  0.43846839  0.53205473  0.15588609    -0.75000
O4          O  0.45117559  0.56053713  0.05763152    -0.81700
O5          O  0.35206392  0.56642938  0.12120594    -0.83500
O6          O  0.47268635  0.59497562  0.06154106    -0.79100
O7          O  0.38236451  0.54132334  0.12495408    -0.90700
O8          O  0.44622830  0.54600609  0.22724651    -0.76700
O9          O  0.44928257  0.58356374  0.15572327    -0.86200
O10         O  0.40174902  0.56899498  0.18721362    -0.85900
O11         O  0.42688981  0.60111109  0.07266580    -0.72600
O12         O  0.38511277  0.58821907  0.10141659    -0.84800
Zr13       Zr  0.40385393  0.65088219  0.17734510     2.26400
Zr14       Zr  0.45594143  0.62166878  0.11853250     2.06300
Zr15       Zr  0.36771033  0.59409207  0.17643118     2.10000
Zr16       Zr  0.43173591  0.58844020  0.22971168     1.78800
O17         O  0.32670901  0.58052645  0.18382112    -0.93600
O18         O  0.47233106  0.59216293  0.25646063    -0.41400
O19         O  0.39741278  0.61413578  0.22027043    -0.78000
O20         O  0.43873921  0.62715181  0.19318089    -0.96700
O21         O  0.42175313  0.64505763  0.10397601    -0.90000
O22         O  0.37439851  0.63064817  0.13359973    -0.92900
C23         C  0.44638841  0.52902755  0.19683478     1.00900
C24         C  0.36255005  0.54755202  0.10794666     1.13800
C25         C  0.46758446  0.57471161  0.04340194     1.04600
O26         O  0.49210213  0.61576950  0.16181095    -0.95000
O27         O  0.46440466  0.66454343  0.13075978    -0.90800
O28         O  0.43686430  0.67802632  0.18161447    -0.83900
C29         C  0.45576632  0.68073999  0.15750042     1.11200
O30         O  0.40857654  0.63675516  0.98566326    -0.97000
Zr31       Zr  0.39284679  0.62430558  0.06054636     1.88900
O32         O  0.38133767  0.67757341  0.12446071    -0.73600
O33         O  0.48034457  0.64323401  0.06204743    -0.52900
O34         O  0.38616795  0.59983857  0.99276280    -0.97600
O35         O  0.35134376  0.63017450  0.04105078    -0.54800
O36         O  0.39752885  0.66674927  0.05803206    -0.74200
C37         C  0.38308041  0.67966355  0.08021186     0.98200
O38         O  0.40422796  0.68550170  0.22825653    -0.63000
O39         O  0.36429099  0.57544453  0.25228769    -0.57800
O40         O  0.37199908  0.64913010  0.23273381    -0.94500
O41         O  0.34374655  0.62780027  0.19880201    -0.92900
O42         O  0.41142197  0.56725219  0.29222304    -0.93200
O43         O  0.43358732  0.60810780  0.30434721    -0.92000
C44         C  0.35045996  0.64605276  0.22149630     1.17000
H45         H  0.39755299  0.55392739  0.20160412     0.33000
H46         H  0.44947755  0.63622333  0.21212321     0.43800
H47         H  0.36020843  0.63981185  0.12896600     0.37400
H48         H  0.43189783  0.59884857  0.04115881     0.33800
H49         H  0.48208112  0.58473783  0.23191101     0.25600
H50         H  0.49543801  0.63440817  0.05968214     0.31600
H51         H  0.39663473  0.58586755  0.99663399     0.37500
H52         H  0.42399696  0.55833012  0.30828425     0.31900
H53         H  0.35432949  0.58648094  0.27059927     0.30800
H54         H  0.32034459  0.58822704  0.21197576     0.32500
H55         H  0.34753080  0.64677990  0.04985795     0.31500
H56         H  0.42768587  0.62445821  0.29853267     0.35500
H57         H  0.38849429  0.69297770  0.22494302     0.28200
H58         H  0.42421277  0.52364523  0.05174578     0.32400
H59         H  0.42595622  0.63704946  0.98970287     0.35300
H60         H  0.35426827  0.56108360  0.24780405     0.27900
H61         H  0.40433002  0.67895135  0.26002944     0.40800
H62         H  0.50451066  0.61326425  0.13798886     0.30800
H63         H  0.47615550  0.60942738  0.25449355     0.38400
H64         H  0.34226372  0.62005208  0.06312668     0.30300
H65         H  0.47245307  0.64070140  0.03212945     0.30300
H66         H  0.41398224  0.54448801  0.02136692     0.30600
Zr67       Zr  0.44427489  0.90289401  0.17256934     2.17500
O68         O  0.43672383  0.93150476  0.23420666    -0.51800
O69         O  0.47016047  0.93022027  0.13249711    -0.75000
O70         O  0.47562858  0.90422119  0.22818350    -0.81700
O71         O  0.38077097  0.91314998  0.14803005    -0.83500
O72         O  0.48860761  0.86640943  0.24030719    -0.79100
O73         O  0.41567908  0.93189069  0.14747873    -0.90700
O74         O  0.47475798  0.91542925  0.06023467    -0.76700
O75         O  0.47309947  0.87835963  0.13596633    -0.86200
O76         O  0.42972301  0.89781821  0.09613058    -0.85900
O77         O  0.44478346  0.86714227  0.21866444    -0.72600
O78         O  0.40587809  0.88513845  0.18057190    -0.84800
Zr79       Zr  0.41916504  0.81741780  0.11735433     2.26400
Zr80       Zr  0.47272384  0.84158596  0.17880103     2.06300
Zr81       Zr  0.39190673  0.87830534  0.10376684     2.10000
Zr82       Zr  0.45816231  0.87331405  0.06059676     1.78800
O83         O  0.35217642  0.89405608  0.09312769    -0.93600
O84         O  0.50023380  0.86872279  0.04379575    -0.41400
O85         O  0.42014669  0.85258670  0.06820167    -0.78000
O86         O  0.45776352  0.83554842  0.10296487    -0.96700
O87         O  0.43463798  0.82396996  0.19203004    -0.90000
O88         O  0.39145116  0.84365131  0.15264326    -0.92900
C89         C  0.47786299  0.93197035  0.09102057     1.00900
C90         C  0.39405016  0.93063001  0.15989286     1.13800
C91         C  0.48730127  0.88865646  0.25100188     1.04600
O92         O  0.50911524  0.84678760  0.13423556    -0.95000
O93         O  0.47512517  0.79741285  0.17450547    -0.90800
O94         O  0.44483017  0.78414892  0.13044076    -0.83900
C95         C  0.46364793  0.78076768  0.15348390     1.11200
O96         O  0.39503920  0.88076091  0.28267828    -0.97000
Zr97       Zr  0.40683147  0.85031011  0.22736545     1.88900
O98         O  0.39332300  0.79475925  0.17286715    -0.73600
O99         O  0.50057132  0.81829367  0.22390369    -0.52900
O100        O  0.41872063  0.84525144  0.30727537    -0.97600
O101        O  0.36451362  0.84562353  0.24342736    -0.54800
O102        O  0.40793116  0.80808566  0.23861135    -0.74200
C103        C  0.39353231  0.79477304  0.21736736     0.98200
O104        O  0.41989082  0.78985361  0.05246814    -0.63000
O105        O  0.39480349  0.89424400  0.02559876    -0.57800
O106        O  0.38251965  0.81194868  0.07785351    -0.94500
O107        O  0.36368379  0.84760489  0.08027595    -0.92900
O108        O  0.44254447  0.89067950  0.99015887    -0.93200
O109        O  0.46497278  0.84879820  0.99257444    -0.92000
C110        C  0.36427780  0.82501296  0.07252490     1.17000
H111        H  0.42860140  0.91256624  0.07887730     0.33000
H112        H  0.46771599  0.82427622  0.08684121     0.43800
H113        H  0.37593324  0.83658906  0.15625603     0.37400
H114        H  0.44810504  0.87037101  0.25053906     0.33800
H115        H  0.50260805  0.87625593  0.01312508     0.25600
H116        H  0.51346269  0.82935390  0.23281478     0.31600
H117        H  0.43275883  0.83477131  0.30568392     0.37500
H118        H  0.45583505  0.90020946  0.97703518     0.31900
H119        H  0.38253532  0.88553689  0.00810612     0.30800
H120        H  0.34860361  0.89187561  0.06006482     0.32500
H121        H  0.35965573  0.83014569  0.23006293     0.31500
H122        H  0.45032935  0.83913293  0.98958665     0.35500
H123        H  0.43666008  0.78915490  0.04234347     0.28200
H124        H  0.45028151  0.94280523  0.23343265     0.32400
H125        H  0.40160691  0.89593037  0.27022386     0.35300
H126        H  0.38882185  0.91078712  0.02804314     0.27900
H127        H  0.41633756  0.77384608  0.06560843     0.40800
H128        H  0.51885712  0.85782754  0.15285866     0.30800
H129        H  0.50826714  0.87975138  0.06528045     0.38400
H130        H  0.35683214  0.85780469  0.22387178     0.30300
H131        H  0.49197876  0.81439436  0.25287920     0.30300
H132        H  0.43828666  0.92253582  0.26350473     0.30600
Zr133      Zr  0.03925327  0.92864956  0.66582234     2.17500
O134        O  0.03041207  0.96232315  0.61502888    -0.51800
O135        O  0.01450045  0.95463180  0.71426749    -0.75000
O136        O  0.01212216  0.91924140  0.60252658    -0.81700
O137        O  0.09579770  0.95942446  0.71501842    -0.83500
O138        O  0.00480038  0.87932744  0.60297523    -0.79100
O139        O  0.06670971  0.96132642  0.66152987    -0.90700
O140        O  0.01501719  0.94005736  0.78739854    -0.76700
O141        O  0.01654069  0.89820385  0.70321244    -0.86200
O142        O  0.05392591  0.92809440  0.74244770    -0.85900
O143        O  0.04885142  0.89279838  0.62394751    -0.72600
O144        O  0.08117155  0.92130619  0.66229072    -0.84800
Zr145      Zr  0.08193626  0.85164653  0.73210316     2.26400
Zr146      Zr  0.02713452  0.86173107  0.66427138     2.06300
Zr147      Zr  0.09476194  0.91822608  0.74023399     2.10000
Zr148      Zr  0.03089947  0.89842161  0.78012664     1.78800
O149        O  0.13515225  0.93095574  0.72318543    -0.93600
O150        O  0.98802199  0.89361065  0.78591271    -0.41400
O151        O  0.07224933  0.88692911  0.77658040    -0.78000
O152        O  0.04032298  0.86064598  0.74191944    -0.96700
O153        O  0.06837987  0.85398607  0.65550492    -0.90000
O154        O  0.10395216  0.88332594  0.69717533    -0.92900
C155        C  0.01071319  0.95690288  0.75786845     1.00900
C156        C  0.08400040  0.97030305  0.68399126     1.13800
C157        C  0.00277479  0.90019294  0.58552630     1.04600
O158        O  0.98975435  0.85503126  0.70491863    -0.95000
O159        O  0.03476166  0.81864345  0.66885575    -0.90800
O160        O  0.06659640  0.81209220  0.71383773    -0.83900
C161        C  0.04959711  0.80463390  0.68852070     1.11200
O162        O  0.08899695  0.91229752  0.55342872    -0.97000
Zr163      Zr  0.09005461  0.88600650  0.62050747     1.88900
O164        O  0.11508350  0.83360277  0.68731612    -0.73600
O165        O  0.01283095  0.83227036  0.60911070    -0.52900
O166        O  0.08112562  0.86324342  0.55129989    -0.97600
O167        O  0.12813999  0.90514262  0.60414890    -0.54800
O168        O  0.11865854  0.85483696  0.62063244    -0.74200
C169        C  0.12505228  0.83819777  0.64787457     0.98200
O170        O  0.08111707  0.82310034  0.79579967    -0.63000
O171        O  0.09182773  0.94002866  0.81268995    -0.57800
O172        O  0.11368913  0.85873702  0.78428193    -0.94500
O173        O  0.12309986  0.89821142  0.78939814    -0.92900
O174        O  0.04573685  0.91112038  0.85477037    -0.93200
O175        O  0.01772079  0.87157276  0.84170183    -0.92000
C176        C  0.12587167  0.87616129  0.79993660     1.17000
H177        H  0.05355484  0.94358330  0.75677632     0.33000
H178        H  0.03256723  0.84760290  0.75809242     0.43800
H179        H  0.12078969  0.88050395  0.69799248     0.37400
H180        H  0.04540733  0.89362510  0.59153120     0.33800
H181        H  0.98344793  0.90244067  0.81413179     0.25600
H182        H  0.99536710  0.83341306  0.60993584     0.31600
H183        H  0.09659918  0.85726291  0.54010910     0.37500
H184        H  0.05732355  0.89878454  0.86373976     0.31900
H185        H  0.09850712  0.92927624  0.83632799     0.30800
H186        H  0.13948348  0.94140218  0.74930399     0.32500
H187        H  0.12600151  0.92197064  0.61369941     0.31500
H188        H  0.03100670  0.86033014  0.84576447     0.35500
H189        H  0.09704035  0.81579648  0.79604187     0.28200
H190        H  0.01295144  0.96369040  0.61435345     0.32400
H191        H  0.08133631  0.92705927  0.56474902     0.35300
H192        H  0.10354192  0.95318744  0.80960381     0.27900
H193        H  0.08034702  0.83289719  0.82413627     0.40800
H194        H  0.97765630  0.86182898  0.68427342     0.30800
H195        H  0.98151568  0.90331111  0.76044855     0.38400
H196        H  0.13914601  0.89848991  0.62714943     0.30300
H197        H  0.01770261  0.83815134  0.57816261     0.30300
H198        H  0.03519137  0.95734773  0.58355712     0.30600
Zr199      Zr  0.03855348  0.57845002  0.66263361     2.17500
O200        O  0.04800069  0.54944236  0.72253273    -0.51800
O201        O  0.00578247  0.55514054  0.63390427    -0.75000
O202        O  0.01461719  0.58384907  0.73184048    -0.81700
O203        O  0.09284449  0.55539055  0.60761655    -0.83500
O204        O  0.01088655  0.62378108  0.74335338    -0.79100
O205        O  0.05631033  0.54380829  0.62714150    -0.90700
O206        O  0.99708848  0.57179181  0.56454621    -0.76700
O207        O  0.01271412  0.61023118  0.64273363    -0.86200
O208        O  0.04270982  0.58171200  0.58082853    -0.85900
O209        O  0.05282225  0.61282856  0.70339020    -0.72600
O210        O  0.07961940  0.58676716  0.64731168    -0.84800
Zr211      Zr  0.07229437  0.65830722  0.58664289     2.26400
Zr212      Zr  0.02808673  0.64535057  0.67991381     2.06300
Zr213      Zr  0.08318487  0.59155187  0.56528021     2.10000
Zr214      Zr  0.01641392  0.61263932  0.56136388     1.78800
O215        O  0.11683401  0.57078716  0.53103898    -0.93600
O216        O  0.97445864  0.61993474  0.57530075    -0.41400
O217        O  0.05724568  0.62378190  0.54527731    -0.78000
O218        O  0.03056769  0.64940424  0.59816755    -0.96700
O219        O  0.06893732  0.65336393  0.66728527    -0.90000
O220        O  0.09783861  0.62599915  0.60677693    -0.92900
C221        C  0.99552810  0.55458680  0.59475016     1.00900
C222        C  0.07857905  0.54052462  0.62714582     1.13800
C223        C  0.00828742  0.60202972  0.75588198     1.04600
O224        O  0.98763073  0.65833547  0.66709193    -0.95000
O225        O  0.03680754  0.68815160  0.67798884    -0.90800
O226        O  0.05327298  0.69575212  0.60807900    -0.83900
C227        C  0.04469148  0.70261109  0.64690957     1.11200
O228        O  0.10045909  0.59315561  0.75135412    -0.97000
Zr229      Zr  0.09329195  0.62067815  0.68781695     1.88900
O230        O  0.10918478  0.67612148  0.61912641    -0.73600
O231        O  0.02943512  0.66823903  0.75129488    -0.52900
O232        O  0.09289562  0.63954373  0.76336858    -0.97600
O233        O  0.13206016  0.60215673  0.68205565    -0.54800
O234        O  0.11941851  0.65400161  0.68161679    -0.74200
C235        C  0.12237632  0.67168850  0.65435772     0.98200
O236        O  0.07912610  0.69048252  0.53096454    -0.63000
O237        O  0.06682800  0.57335501  0.49622597    -0.57800
O238        O  0.08406824  0.64442453  0.51161601    -0.94500
O239        O  0.11050614  0.61610099  0.52119799    -0.92900
O240        O  0.01921927  0.60070337  0.48080671    -0.93200
O241        O  0.00035893  0.64143608  0.50700728    -0.92000
C242        C  0.10494206  0.63663924  0.50587516     1.17000
H243        H  0.03902729  0.56705816  0.56494916     0.33000
H244        H  0.02106131  0.66271875  0.58822335     0.43800
H245        H  0.11421374  0.62960752  0.59968205     0.37400
H246        H  0.05210185  0.61021265  0.73627662     0.33800
H247        H  0.96632658  0.61187644  0.54951397     0.25600
H248        H  0.01277847  0.67048423  0.76100788     0.31600
H249        H  0.08386858  0.65447007  0.75894683     0.37500
H250        H  0.00898075  0.58634764  0.47846875     0.31900
H251        H  0.07813826  0.57766718  0.47119209     0.30800
H252        H  0.11097178  0.55460104  0.52326921     0.32500
H253        H  0.14271705  0.61272593  0.69973696     0.31500
H254        H  0.01416462  0.65130682  0.49733209     0.35500
H255        H  0.06325742  0.69603071  0.52169020     0.28200
H256        H  0.03283562  0.54157397  0.73116282     0.32400
H257        H  0.09934686  0.57705155  0.73747167     0.35300
H258        H  0.06883558  0.55593309  0.50066821     0.27900
H259        H  0.08611636  0.70391122  0.54843306     0.40800
H260        H  0.98769605  0.67546213  0.67553761     0.30800
H261        H  0.97025250  0.61014509  0.60273529     0.38400
H262        H  0.13708226  0.60429664  0.64950090     0.30300
H263        H  0.03632865  0.65751931  0.77477496     0.30300
H264        H  0.05253440  0.55894331  0.74982334     0.30600
Zr265      Zr  0.21978904  0.76290409  0.82277923     2.17500
O266        O  0.21012301  0.78998133  0.75957330    -0.51800
O267        O  0.19312245  0.73953748  0.77490594    -0.75000
O268        O  0.24983452  0.76318588  0.76186865    -0.81700
O269        O  0.17594758  0.79386607  0.90770490    -0.83500
O270        O  0.28006821  0.73851442  0.78092997    -0.79100
O271        O  0.19498720  0.79792592  0.83883833    -0.90700
O272        O  0.19583070  0.70115503  0.79951592    -0.76700
O273        O  0.23933298  0.72535916  0.82921973    -0.86200
O274        O  0.19388815  0.73882020  0.86960910    -0.85900
O275        O  0.25835190  0.77089446  0.85471333    -0.72600
O276        O  0.21668440  0.78182656  0.89555251    -0.84800
Zr277      Zr  0.24811412  0.72954437  0.98280225     2.26400
Zr278      Zr  0.27711896  0.73251803  0.86466865     2.06300
Zr279      Zr  0.19142801  0.75787461  0.94347948     2.10000
Zr280      Zr  0.21374589  0.70148447  0.87607657     1.78800
O281        O  0.16210467  0.77988284  0.98810005    -0.93600
O282        O  0.23380909  0.66806653  0.83938030    -0.41400
O283        O  0.21026873  0.72008828  0.95059802    -0.78000
O284        O  0.25170971  0.70781229  0.91172741    -0.96700
O285        O  0.27284508  0.75366973  0.93488520    -0.90000
O286        O  0.22883340  0.76703259  0.97656058    -0.92900
C287        C  0.18851674  0.71716939  0.77113714     1.00900
C288        C  0.18044223  0.80538873  0.87022061     1.13800
C289        C  0.26874088  0.75157271  0.75205245     1.04600
O290        O  0.28981008  0.69284774  0.84102704    -0.95000
O291        O  0.30703680  0.72236777  0.92476915    -0.90800
O292        O  0.28723018  0.71413155  0.99158393    -0.83900
C293        C  0.30637811  0.71592655  0.96786205     1.11200
O294        O  0.25839097  0.82595146  0.87809523    -0.97000
Zr295      Zr  0.25367905  0.79088222  0.92741687     2.03300
O296        O  0.27509772  0.75547776  0.02459602    -0.73600
O297        O  0.31522961  0.75072429  0.84482943    -0.52900
O298        O  0.29521682  0.80282515  0.92627598    -0.97600
O299        O  0.23168734  0.82546658  0.95497514    -0.54800
O300        O  0.26539882  0.79339746  0.00624799    -0.74200
C301        C  0.27789080  0.77818639  0.02753574     0.98200
O302        O  0.24767764  0.69293141  0.02866147    -0.63000
O303        O  0.15677835  0.73258853  0.93130544    -0.57800
O304        O  0.22335780  0.73330696  0.05035394    -0.94500
O305        O  0.18990571  0.75211767  0.02737221    -0.92900
O306        O  0.17370676  0.68589374  0.88726161    -0.93200
O307        O  0.21033939  0.66509126  0.92200603    -0.92000
C308        C  0.20315655  0.74274771  0.05824700     1.17000
H309        H  0.17838610  0.73732306  0.85620476     0.33000
H310        H  0.25916454  0.69260733  0.91741740     0.43800
H311        H  0.22666234  0.77483299  0.00591099     0.37400
H312        H  0.26772951  0.78095085  0.83434645     0.33800
H313        H  0.22090197  0.65818477  0.82644187     0.25600
H314        H  0.32344541  0.73864216  0.82573200     0.31600
H315        H  0.29551838  0.81857994  0.94170110     0.37500
H316        H  0.16355941  0.69568984  0.86709626     0.31900
H317        H  0.15244754  0.72648517  0.96237440     0.30800
H318        H  0.14889452  0.76853653  0.99402416     0.32500
H319        H  0.23443647  0.82610056  0.98860238     0.31500
H320        H  0.22039077  0.66806280  0.94916833     0.35500
H321        H  0.23076937  0.68830466  0.03122036     0.28200
H322        H  0.22368270  0.80122017  0.75687164     0.32400
H323        H  0.24462586  0.82531108  0.85726016     0.35300
H324        H  0.14395397  0.74378945  0.92327394     0.27900
H325        H  0.25462917  0.68065381  0.00818367     0.40800
H326        H  0.29487021  0.69472913  0.80842088     0.30800
H327        H  0.24184748  0.67517149  0.81205214     0.38400
H328        H  0.21481500  0.82084235  0.95229907     0.30300
H329        H  0.31166852  0.76395028  0.82326556     0.30300
H330        H  0.21075650  0.78028344  0.73109309     0.30600
Zr331      Zr  0.22063557  0.74251984  0.48861788     2.17500
O332        O  0.21055381  0.71447368  0.55056728    -0.51800
O333        O  0.19834447  0.77079036  0.53421143    -0.75000
O334        O  0.24929987  0.74309516  0.55025572    -0.81700
O335        O  0.16958023  0.71972396  0.41571705    -0.83500
O336        O  0.28428793  0.75910303  0.52493408    -0.79100
O337        O  0.18699265  0.71552435  0.48553969    -0.90700
O338        O  0.20284251  0.80684868  0.49928899    -0.76700
O339        O  0.24578185  0.77623639  0.47571905    -0.86200
O340        O  0.19889980  0.76786630  0.43803668    -0.85900
O341        O  0.25734073  0.72738177  0.45828504    -0.72600
O342        O  0.21372844  0.72023972  0.42025669    -0.84800
Zr343      Zr  0.25353757  0.76282383  0.32271435     2.26400
Zr344      Zr  0.28182368  0.76198183  0.44062834     2.06300
Zr345      Zr  0.19353114  0.74602025  0.36807757     2.10000
Zr346      Zr  0.22436553  0.80136606  0.42553384     1.78800
O347        O  0.16024452  0.72496987  0.33368279    -0.93600
O348        O  0.25149065  0.82874372  0.46376022    -0.41400
O349        O  0.21811531  0.78005169  0.35419065    -0.78000
O350        O  0.26043008  0.78738945  0.38930038    -0.96700
O351        O  0.27409771  0.73806198  0.37512175    -0.90000
O352        O  0.22884658  0.72902594  0.33662760    -0.92900
C353        C  0.19476888  0.79332205  0.53211385     1.00900
C354        C  0.17088595  0.71055760  0.45614904     1.13800
C355        C  0.27037226  0.75090054  0.55678406     1.04600
O356        O  0.30014590  0.79983567  0.46188590    -0.95000
O357        O  0.31257813  0.76714612  0.37832306    -0.90800
O358        O  0.29398169  0.77339175  0.31038375    -0.83900
C359        C  0.31272357  0.77126758  0.33419199     1.11200
O360        O  0.23505598  0.67043111  0.43506560    -0.97000
Zr361      Zr  0.24930291  0.70463284  0.39040710     1.88900
O362        O  0.27605228  0.73240389  0.28108833    -0.73600
O363        O  0.31688679  0.73905465  0.45997867    -0.52900
O364        O  0.28180180  0.68190928  0.42279976    -0.97600
O365        O  0.22930992  0.67458614  0.34381220    -0.54800
O366        O  0.27601570  0.69938265  0.32720920    -0.74200
C367        C  0.28295280  0.71130109  0.29197263     0.98200
O368        O  0.25895132  0.79765009  0.27289043    -0.63000
O369        O  0.16595968  0.77930677  0.36841471    -0.57800
O370        O  0.22776507  0.75884411  0.25713429    -0.94500
O371        O  0.19205077  0.74560713  0.28392377    -0.92900
O372        O  0.18971034  0.82478183  0.40558679    -0.93200
O373        O  0.22915585  0.83805433  0.38083935    -0.92000
C374        C  0.20641560  0.75169506  0.25130312     1.17000
H375        H  0.18367194  0.77221198  0.45077683     0.33000
H376        H  0.27020012  0.80093389  0.38057255     0.43800
H377        H  0.22611477  0.71998991  0.30888546     0.37400
H378        H  0.26492971  0.71728851  0.48074410     0.33800
H379        H  0.24200884  0.84324517  0.46969938     0.25600
H380        H  0.32682191  0.75016708  0.47804226     0.31600
H381        H  0.29595943  0.69210644  0.41742588     0.37500
H382        H  0.17692241  0.81886419  0.42633926     0.31900
H383        H  0.16168598  0.78153009  0.33566185     0.30800
H384        H  0.14790644  0.73722395  0.32924601     0.32500
H385        H  0.23599740  0.67640114  0.31229186     0.31500
H386        H  0.23990979  0.83367201  0.35509688     0.35500
H387        H  0.24289491  0.80434042  0.26931448     0.28200
H388        H  0.21080117  0.72384124  0.57946317     0.32400
H389        H  0.22934596  0.67733984  0.46450612     0.35300
H390        H  0.15141624  0.77285280  0.38333648     0.27900
H391        H  0.26304185  0.79108353  0.24218094     0.40800
H392        H  0.30804937  0.80569296  0.43335027     0.30800
H393        H  0.25393646  0.82174632  0.49473811     0.38400
H394        H  0.21279617  0.68024711  0.34137249     0.30300
H395        H  0.31135721  0.72686452  0.48253350     0.30300
H396        H  0.22420768  0.70352515  0.55266009     0.30600
Zr397      Zr  0.58082214  0.96496395  0.43003865     2.17500
O398        O  0.56914411  0.98368592  0.35779674    -0.51800
O399        O  0.54680674  0.97586811  0.47576456    -0.75000
O400        O  0.54730122  0.94390811  0.40003315    -0.81700
O401        O  0.62749480  0.01030140  0.42029685    -0.83500
O402        O  0.55265578  0.90494027  0.41904026    -0.79100
O403        O  0.58888936  0.00710099  0.43591997    -0.90700
O404        O  0.55306092  0.95851118  0.54554119    -0.76700
O405        O  0.57495845  0.93264549  0.48239824    -0.86200
O406        O  0.60179990  0.97649672  0.49747186    -0.85900
O407        O  0.59568205  0.93010165  0.39153292    -0.72600
O408        O  0.62102437  0.97063019  0.40534999    -0.84800
Zr409      Zr  0.65371258  0.91451278  0.48317268     2.26400
Zr410      Zr  0.59202948  0.89822910  0.44735384     2.06300
Zr411      Zr  0.64256807  0.98054916  0.47349855     2.10000
Zr412      Zr  0.59543135  0.94418545  0.54872925     1.78800
O413        O  0.66886249  0.01468026  0.46016118    -0.93600
O414        O  0.57394061  0.91339680  0.59183158    -0.41400
O415        O  0.63707565  0.94773015  0.52564671    -0.78000
O416        O  0.61384817  0.90952992  0.51402869    -0.96700
O417        O  0.63093892  0.90429178  0.41841747    -0.90000
O418        O  0.65826246  0.94720043  0.43127058    -0.92900
C419        C  0.53981998  0.96982626  0.51627620     1.00900
C420        C  0.60602180  0.01638143  0.41319019     1.13800
C421        C  0.54083199  0.92196006  0.40072623     1.04600
O422        O  0.56519839  0.87422066  0.49501849    -0.95000
O423        O  0.61282605  0.86136957  0.46933274    -0.90800
O424        O  0.64866005  0.87285417  0.49695502    -0.83900
C425        C  0.63317042  0.85707443  0.48715058     1.11200
O426        O  0.62647995  0.96566931  0.30611180    -0.97000
Zr427      Zr  0.63555975  0.93658077  0.36593145     1.88900
O428        O  0.67292808  0.88950196  0.42207860    -0.73600
O429        O  0.58731575  0.87105668  0.38262081    -0.52900
O430        O  0.61876660  0.91931850  0.29653308    -0.97600
O431        O  0.67291449  0.95069268  0.33220566    -0.54800
O432        O  0.65848202  0.90112997  0.35291973    -0.74200
C433        C  0.67044063  0.88684617  0.37796943     0.98200
O434        O  0.67605950  0.90153679  0.55011524    -0.63000
O435        O  0.63696564  0.00200168  0.54575168    -0.57800
O436        O  0.69157701  0.93427346  0.49535351    -0.94500
O437        O  0.68464831  0.97407016  0.48813849    -0.92900
O438        O  0.59716863  0.97878807  0.59930594    -0.93200
O439        O  0.61069541  0.93503139  0.62492097    -0.92000
C440        C  0.69848570  0.95619473  0.49440165     1.17000
H441        H  0.59568038  0.99093971  0.51115471     0.33000
H442        H  0.61350028  0.89669155  0.53639661     0.43800
H443        H  0.67436010  0.94960898  0.42087075     0.37400
H444        H  0.58622719  0.92659431  0.36482666     0.33800
H445        H  0.56288282  0.92233035  0.61199627     0.25600
H446        H  0.57381858  0.86060555  0.39162125     0.31600
H447        H  0.63176796  0.91994281  0.27336465     0.37500
H448        H  0.58171582  0.97874494  0.61573553     0.31900
H449        H  0.65306063  0.00352849  0.55862908     0.30800
H450        H  0.66404316  0.02695559  0.48279517     0.32500
H451        H  0.67177310  0.94676991  0.29903313     0.31500
H452        H  0.62581247  0.92671057  0.61876786     0.35500
H453        H  0.66426472  0.89406559  0.57126401     0.28200
H454        H  0.55346023  0.99071504  0.36440953     0.32400
H455        H  0.60919592  0.96817069  0.30879822     0.35300
H456        H  0.63259333  0.01845459  0.53668037     0.27900
H457        H  0.68604341  0.88816816  0.53919949     0.40800
H458        H  0.57452478  0.86982374  0.52242889     0.30800
H459        H  0.56360636  0.90577855  0.56873053     0.38400
H460        H  0.68520877  0.93976098  0.34389097     0.30300
H461        H  0.58118288  0.88106979  0.35724502     0.30300
H462        H  0.56600574  0.97041819  0.33617100     0.30600
Zr463      Zr  0.92203839  0.95494559  0.45989861     2.17500
O464        O  0.95699501  0.95941134  0.50728630    -0.51800
O465        O  0.93986757  0.99010666  0.42680353    -0.75000
O466        O  0.95071609  0.93390458  0.41249322    -0.81700
O467        O  0.88156576  0.97770168  0.55409393    -0.83500
O468        O  0.94051012  0.89618552  0.40055978    -0.79100
O469        O  0.91886090  0.96398830  0.54190025    -0.90700
O470        O  0.92896429  0.98706656  0.35261485    -0.76700
O471        O  0.91488873  0.94467922  0.38173903    -0.86200
O472        O  0.89351119  0.98400624  0.43727643    -0.85900
O473        O  0.90890046  0.91376508  0.46066966    -0.72600
O474        O  0.88708675  0.94804256  0.50224367    -0.84800
Zr475      Zr  0.83695938  0.92652386  0.40924385     2.26400
Zr476      Zr  0.89954715  0.90454530  0.38147507     2.06300
Zr477      Zr  0.85852518  0.97674442  0.48327969     2.10000
Zr478      Zr  0.88683995  0.97345610  0.35889388     1.78800
O479        O  0.84440230  0.00309604  0.54424013    -0.93600
O480        O  0.89670919  0.96409197  0.27904827    -0.41400
O481        O  0.85090492  0.96738394  0.40481722    -0.78000
O482        O  0.87058560  0.93326653  0.35807006    -0.96700
O483        O  0.86598132  0.89824120  0.43123935    -0.90000
O484        O  0.84509264  0.93624781  0.48680078    -0.92900
C485        C  0.94368012  0.99378458  0.38390343     1.00900
C486        C  0.90234928  0.97216739  0.56833118     1.13800
C487        C  0.95493630  0.91172493  0.41649341     1.04600
O488        O  0.91747354  0.90484322  0.30473700    -0.95000
O489        O  0.87083684  0.88116694  0.33798388    -0.90800
O490        O  0.83368682  0.89394446  0.35666629    -0.83900
C491        C  0.84813862  0.88035669  0.33526698     1.11200
O492        O  0.90412209  0.89601392  0.56463713    -0.97000
Zr493      Zr  0.87473481  0.90818253  0.50852677     1.88900
O494        O  0.81465166  0.89776666  0.45987205    -0.73600
O495        O  0.90523469  0.86167617  0.39087883    -0.52900
O496        O  0.87976786  0.86497502  0.50671673    -0.97600
O497        O  0.86830931  0.92093560  0.58776540    -0.54800
O498        O  0.83650866  0.89189887  0.52416657    -0.74200
C499        C  0.81768882  0.88914625  0.50096951     0.98200
O500        O  0.80931511  0.93483469  0.34719476    -0.63000
O501        O  0.85802355  0.01742681  0.45292700    -0.57800
O502        O  0.80219259  0.94656444  0.43704389    -0.94500
O503        O  0.81504903  0.97399396  0.48884187    -0.92900
O504        O  0.88255306  0.01675110  0.35893916    -0.93200
O505        O  0.85960941  0.98804683  0.30083253    -0.92000
C506        C  0.79863739  0.96226141  0.46820232     1.17000
H507        H  0.89907008  0.00024518  0.44078177     0.33000
H508        H  0.86587895  0.92979792  0.32685964     0.43800
H509        H  0.83160611  0.93487218  0.50733062     0.37400
H510        H  0.92065782  0.90343777  0.47373812     0.33800
H511        H  0.90575548  0.97819149  0.26773856     0.25600
H512        H  0.91887435  0.85767184  0.37069340     0.31600
H513        H  0.86807605  0.85909514  0.48416561     0.37500
H514        H  0.89680331  0.02287639  0.34249457     0.31900
H515        H  0.84134533  0.02254433  0.45617617     0.30800
H516        H  0.83320319  0.99325674  0.56280702     0.32500
H517        H  0.85968019  0.90749469  0.60272808     0.31500
H518        H  0.84595659  0.97688836  0.30271821     0.35500
H519        H  0.80628835  0.95222148  0.34902008     0.28200
H520        H  0.97013287  0.96299751  0.48549907     0.32400
H521        H  0.91636054  0.90875530  0.56332287     0.35300
H522        H  0.86674760  0.02714030  0.47570077     0.27900
H523        H  0.81872138  0.93309176  0.31840248     0.40800
H524        H  0.93315246  0.91249879  0.30888853     0.30800
H525        H  0.90864000  0.95127643  0.28113703     0.38400
H526        H  0.85638436  0.93373467  0.58527822     0.30300
H527        H  0.91110699  0.85965038  0.42269883     0.30300
H528        H  0.96006128  0.94319011  0.51935884     0.30600
Zr529      Zr  0.57676021  0.51812806  0.94243221     2.17500
O530        O  0.54506717  0.49818373  0.98587641    -0.51800
O531        O  0.55924743  0.49170297  0.88519187    -0.75000
O532        O  0.54089835  0.53955591  0.93314651    -0.81700
O533        O  0.62403877  0.49090570  0.02051943    -0.83500
O534        O  0.54472141  0.57292509  0.88908045    -0.79100
O535        O  0.58451727  0.49720308  0.01568778    -0.90700
O536        O  0.57030064  0.50916821  0.81845190    -0.76700
O537        O  0.58020053  0.53860594  0.87070566    -0.86200
O538        O  0.60944684  0.49915984  0.90559734    -0.85900
O539        O  0.58075434  0.56040431  0.95854651    -0.72600
O540        O  0.60991670  0.52687144  0.98831985    -0.84800
Zr541      Zr  0.65283428  0.56950924  0.90222855     2.26400
Zr542      Zr  0.58709337  0.57995384  0.88531536     2.06300
Zr543      Zr  0.64307309  0.50840794  0.95304348     2.10000
Zr544      Zr  0.61243327  0.52021026  0.83375689     1.78800
O545        O  0.66751741  0.48411735  0.00320896    -0.93600
O546        O  0.60595444  0.53728293  0.75752938    -0.41400
O547        O  0.64714966  0.52825278  0.88067669    -0.78000
O548        O  0.62079937  0.56170024  0.84953778    -0.96700
O549        O  0.61915733  0.58784645  0.93628899    -0.90000
O550        O  0.64794219  0.54957858  0.97362459    -0.92900
C551        C  0.55504238  0.49727140  0.84310931     1.00900
C552        C  0.60297113  0.48972235  0.03723971     1.13800
C553        C  0.53238296  0.55754854  0.91196047     1.04600
O554        O  0.56888889  0.58934377  0.81175276    -0.95000
O555        O  0.60873143  0.61153309  0.84395007    -0.90800
O556        O  0.64756753  0.60625305  0.86152130    -0.83900
C557        C  0.63074899  0.61742953  0.84202671     1.11200
O558        O  0.58276264  0.56207829  0.06568416    -0.97000
Zr559      Zr  0.61377485  0.56758813  0.00757863     1.88900
O560        O  0.66815516  0.59838449  0.95936875    -0.73600
O561        O  0.57185705  0.61518788  0.92441806    -0.52900
O562        O  0.59662211  0.60619817  0.02643141    -0.97600
O563        O  0.62842631  0.55265201  0.08091316    -0.54800
O564        O  0.64583243  0.59434302  0.02413876    -0.74200
C565        C  0.66313049  0.60371744  0.00165836     0.98200
O566        O  0.68245819  0.57551311  0.84122032    -0.63000
O567        O  0.64956844  0.47297818  0.90599121    -0.57800
O568        O  0.69122761  0.55389500  0.92179109    -0.94500
O569        O  0.68535335  0.51802207  0.95658038    -0.92900
O570        O  0.61710286  0.47801580  0.81574551    -0.93200
O571        O  0.64320316  0.51442947  0.77545270    -0.92000
C572        C  0.69878488  0.53520865  0.94252011     1.17000
H573        H  0.60641511  0.48224460  0.90236541     0.33000
H574        H  0.62431548  0.56942644  0.82041051     0.43800
H575        H  0.66132262  0.55180246  0.99362765     0.37400
H576        H  0.56698364  0.56678347  0.97407413     0.33800
H577        H  0.59561489  0.52556633  0.74187194     0.25600
H578        H  0.58614054  0.62391793  0.93469940     0.31600
H579        H  0.60251293  0.60989547  0.05766113     0.37500
H580        H  0.61081158  0.47632308  0.78417668     0.31900
H581        H  0.66682714  0.47281496  0.89971904     0.30800
H582        H  0.67686335  0.47356477  0.98274152     0.32500
H583        H  0.64587730  0.55283197  0.07745940     0.31500
H584        H  0.65816093  0.51875252  0.79092329     0.35500
H585        H  0.68900914  0.55944908  0.83509743     0.28200
H586        H  0.53268512  0.49442351  0.96306048     0.32400
H587        H  0.57572344  0.54628412  0.05860244     0.35300
H588        H  0.64667049  0.45928376  0.92707753     0.27900
H589        H  0.67333853  0.57912581  0.81309614     0.40800
H590        H  0.56042115  0.60453213  0.81718803     0.30800
H591        H  0.59562534  0.55121819  0.76317183     0.38400
H592        H  0.62413034  0.53546850  0.08134424     0.30300
H593        H  0.56553895  0.62522616  0.89927782     0.30300
H594        H  0.53799513  0.51071329  0.00564118     0.30600
Zr595      Zr  0.92111044  0.53226914  0.93005430     2.17500
O596        O  0.94837461  0.50984260  0.88112486    -0.51800
O597        O  0.94606465  0.50999844  0.98175653    -0.75000
O598        O  0.95392166  0.55793823  0.90893906    -0.81700
O599        O  0.87184813  0.48660757  0.90634406    -0.83500
O600        O  0.95049997  0.59401933  0.94426607    -0.79100
O601        O  0.90394201  0.50475911  0.87415860    -0.90700
O602        O  0.94346491  0.53190892  0.04638938    -0.76700
O603        O  0.92430603  0.56066769  0.99072344    -0.86200
O604        O  0.89658539  0.51566571  0.98963586    -0.85900
O605        O  0.90952616  0.57073124  0.89988294    -0.72600
O606        O  0.88210071  0.53204496  0.90167027    -0.84800
Zr607      Zr  0.84542617  0.57983623  0.98536938     2.26400
Zr608      Zr  0.90905060  0.59812006  0.96386264     2.06300
Zr609      Zr  0.85678620  0.51580892  0.96035098     2.10000
Zr610      Zr  0.90046008  0.54422994  0.04978502     1.78800
O611        O  0.83331093  0.48145993  0.93607267    -0.93600
O612        O  0.91965421  0.57094277  0.10418036    -0.41400
O613        O  0.85963723  0.54366974  0.02174009    -0.78000
O614        O  0.88377059  0.58164722  0.02256096    -0.96700
O615        O  0.87143227  0.59573456  0.92863503    -0.90000
O616        O  0.84463736  0.55227675  0.92360914    -0.92900
C617        C  0.95520564  0.51807640  0.01863627     1.00900
C618        C  0.88663127  0.48967303  0.87313028     1.13800
C619        C  0.96147245  0.57894182  0.91873150     1.04600
O620        O  0.92840892  0.61983544  0.02565964    -0.95000
O621        O  0.88520980  0.63388159  0.98070935    -0.90800
O622        O  0.84911925  0.62066461  0.00584691    -0.83900
C623        C  0.86400901  0.63720697  0.99620614     1.11200
O624        O  0.89161089  0.55627029  0.79654706    -0.97000
Zr625      Zr  0.87113661  0.56844000  0.86694990     1.88900
O626        O  0.82549960  0.60649695  0.92871414    -0.73600
O627        O  0.91817588  0.62877414  0.90639646    -0.52900
O628        O  0.88872928  0.60166172  0.82377208    -0.97600
O629        O  0.84552264  0.54596618  0.81544396    -0.54800
O630        O  0.84017268  0.59729579  0.85788924    -0.74200
C631        C  0.82695248  0.60974126  0.88452313     0.98200
O632        O  0.82236416  0.58799844  0.05501484    -0.63000
O633        O  0.85627252  0.49279763  0.03182992    -0.57800
O634        O  0.80690470  0.56076508  0.98070846    -0.94500
O635        O  0.81374073  0.52163415  0.96526756    -0.92900
O636        O  0.89675128  0.50604156  0.08996883    -0.93200
O637        O  0.88260375  0.54694231  0.12634975    -0.92000
C638        C  0.79987980  0.53947833  0.97175019     1.17000
H639        H  0.90154560  0.49982137  0.99847754     0.33000
H640        H  0.88291474  0.59265832  0.04810134     0.43800
H641        H  0.82952657  0.55103201  0.90868241     0.37400
H642        H  0.91998335  0.57631982  0.87555490     0.33800
H643        H  0.93288084  0.56156777  0.11695681     0.25600
H644        H  0.93094118  0.63854458  0.92009827     0.31600
H645        H  0.87695437  0.60580309  0.80005491     0.37500
H646        H  0.91275151  0.49897963  0.08810626     0.31900
H647        H  0.83938821  0.49212704  0.04128099     0.30800
H648        H  0.82575842  0.47504295  0.96452518     0.32500
H649        H  0.83011993  0.55425061  0.81668855     0.31500
H650        H  0.86619265  0.55222871  0.12068665     0.35500
H651        H  0.81603849  0.57227035  0.06513661     0.28200
H652        H  0.96375383  0.51023859  0.89711527     0.32400
H653        H  0.88235334  0.56293978  0.77075841     0.35300
H654        H  0.86008327  0.47626999  0.02234770     0.27900
H655        H  0.83434869  0.59201892  0.07846556     0.40800
H656        H  0.94124806  0.62904710  0.01016758     0.30800
H657        H  0.92747155  0.58326733  0.08466570     0.38400
H658        H  0.84262975  0.53054431  0.83146534     0.30300
H659        H  0.92575576  0.62030425  0.88030271     0.30300
H660        H  0.95085821  0.51991164  0.85331125     0.30600
Zr661      Zr  0.74125657  0.75934384  0.59284877     2.17500
O662        O  0.77062387  0.75692375  0.53087808    -0.51800
O663        O  0.70789559  0.78101064  0.55896606    -0.75000
O664        O  0.72696787  0.73697783  0.52876478    -0.81700
O665        O  0.77234884  0.81174028  0.64460109    -0.83500
O666        O  0.71324708  0.70138725  0.55662272    -0.79100
O667        O  0.75862621  0.79740802  0.57678770    -0.90700
O668        O  0.67928722  0.78172416  0.61398075    -0.76700
O669        O  0.70569444  0.74221545  0.62136868    -0.86200
O670        O  0.72969140  0.78444054  0.65500974    -0.85900
O671        O  0.75228635  0.71940755  0.61409484    -0.72600
O672        O  0.77346692  0.75793450  0.64656294    -0.84800
Zr673      Zr  0.73438916  0.72501724  0.76171390     2.26400
Zr674      Zr  0.71612081  0.70247159  0.64218159     2.06300
Zr675      Zr  0.76139902  0.78317679  0.70860307     2.10000
Zr676      Zr  0.69462829  0.76675705  0.68484346     1.78800
O677        O  0.80316237  0.79267146  0.71808084    -0.93600
O678        O  0.65509136  0.74938798  0.67970399    -0.41400
O679        O  0.72567603  0.76564682  0.74008698    -0.78000
O680        O  0.70334876  0.72705906  0.70589253    -0.96700
O681        O  0.74656469  0.70011342  0.69933242    -0.90000
O682        O  0.77020266  0.74303350  0.73353730    -0.92900
C683        C  0.68686402  0.78619360  0.57320460     1.00900
C684        C  0.76937928  0.81325396  0.60022350     1.13800
C685        C  0.71799125  0.71620394  0.52339598     1.04600
O686        O  0.67867937  0.68666052  0.61453607    -0.95000
O687        O  0.69392214  0.67999400  0.70033004    -0.90800
O688        O  0.70568959  0.69249480  0.77107967    -0.83900
C689        C  0.69257285  0.67966989  0.74460522     1.11200
O690        O  0.81350113  0.72392123  0.61447377    -0.97000
Zr691      Zr  0.78240601  0.71794557  0.67243453     1.88900
O692        O  0.76141043  0.69524490  0.79321833    -0.73600
O693        O  0.73527579  0.66415758  0.62945215    -0.52900
O694        O  0.79085328  0.68023099  0.63405350    -0.97600
O695        O  0.82072059  0.72951872  0.70387152    -0.54800
O696        O  0.78934588  0.69059867  0.73762695    -0.74200
C697        C  0.78030899  0.68537261  0.77745676     0.98200
O698        O  0.70823586  0.72609207  0.82913930    -0.63000
O699        O  0.74821187  0.82182038  0.73710356    -0.57800
O700        O  0.75081704  0.74968402  0.82284341    -0.94500
O701        O  0.76526283  0.78482793  0.79327846    -0.92900
O702        O  0.68723799  0.80900837  0.69819923    -0.93200
O703        O  0.67122828  0.77300914  0.75470033    -0.92000
C704        C  0.76051166  0.77041244  0.82707096     1.17000
H705        H  0.72654289  0.80054167  0.64475790     0.33000
H706        H  0.68837917  0.72185088  0.71869819     0.43800
H707        H  0.78213037  0.74316629  0.75713115     0.37400
H708        H  0.75771080  0.71077176  0.58725024     0.33800
H709        H  0.64465184  0.76306361  0.67281098     0.25600
H710        H  0.72396969  0.65220800  0.64223525     0.31600
H711        H  0.78611907  0.66770328  0.65658039     0.37500
H712        H  0.67057449  0.81140994  0.68909212     0.31900
H713        H  0.74051166  0.82946212  0.71037522     0.30800
H714        H  0.80379851  0.81034202  0.71946138     0.32500
H715        H  0.81990787  0.72566005  0.73718971     0.31500
H716        H  0.67300432  0.75803195  0.77258401     0.35500
H717        H  0.71786175  0.72013532  0.85504817     0.28200
H718        H  0.77323652  0.73962672  0.52608865     0.32400
H719        H  0.82524734  0.71120670  0.62010504     0.35300
H720        H  0.73496972  0.81800755  0.75859273     0.27900
H721        H  0.70571835  0.74324579  0.83573544     0.40800
H722        H  0.66827915  0.70078065  0.61232188     0.30800
H723        H  0.65541731  0.73997644  0.65086660     0.38400
H724        H  0.82085397  0.74719676  0.70261428     0.30300
H725        H  0.73473681  0.66175977  0.59567253     0.30300
H726        H  0.78555338  0.76261002  0.54480548     0.30600
Zr727      Zr  0.74757263  0.72813700  0.09418758     2.17500
O728        O  0.72187279  0.72212566  0.02800567    -0.51800
O729        O  0.78312479  0.70850502  0.06227874    -0.75000
O730        O  0.75855979  0.75239351  0.02865580    -0.81700
O731        O  0.70963065  0.68061104  0.15017888    -0.83500
O732        O  0.77519149  0.78686882  0.05426640    -0.79100
O733        O  0.72721253  0.69087163  0.08231446    -0.90700
O734        O  0.81093029  0.70771514  0.11774934    -0.76700
O735        O  0.78337754  0.74432946  0.12235133    -0.86200
O736        O  0.75718494  0.70359958  0.15840502    -0.85900
O737        O  0.73729267  0.76870825  0.11290183    -0.72600
O738        O  0.71468446  0.73232951  0.14743596    -0.84800
Zr739      Zr  0.75336853  0.76370776  0.26111274     2.26400
Zr740      Zr  0.77382106  0.78474442  0.13993091     2.06300
Zr741      Zr  0.72458700  0.70732768  0.21135205     2.10000
Zr742      Zr  0.79259914  0.72039511  0.18803697     1.78800
O743        O  0.68275131  0.70073379  0.22810368    -0.93600
O744        O  0.83360965  0.73390297  0.19220897    -0.41400
O745        O  0.76073072  0.72282889  0.24227793    -0.78000
O746        O  0.78514660  0.76101572  0.20583767    -0.96700
O747        O  0.74322959  0.78856915  0.19738947    -0.90000
O748        O  0.71690819  0.74786626  0.23371672    -0.92900
C749        C  0.80418760  0.70396841  0.07652611     1.00900
C750        C  0.71351175  0.67743614  0.10659917     1.13800
C751        C  0.76832098  0.77276512  0.02178407     1.04600
O752        O  0.81473026  0.79375142  0.11876521    -0.95000
O753        O  0.79072568  0.81105292  0.19730510    -0.90800
O754        O  0.77980144  0.79765228  0.26888406    -0.83900
C755        C  0.79114378  0.81188353  0.24155431     1.11200
O756        O  0.67715641  0.77062414  0.11097765    -0.97000
Zr757      Zr  0.70691195  0.77298214  0.17112037     1.88900
O758        O  0.72797750  0.79462330  0.29109218    -0.73600
O759        O  0.76057355  0.82458398  0.11871908    -0.52900
O760        O  0.70354557  0.81114632  0.13105492    -0.97600
O761        O  0.66711986  0.76430666  0.20038733    -0.54800
O762        O  0.70119895  0.80166028  0.23521460    -0.74200
C763        C  0.71055199  0.80630576  0.27476038     0.98200
O764        O  0.77901908  0.75963897  0.32793755    -0.63000
O765        O  0.73558345  0.66721668  0.23573060    -0.57800
O766        O  0.73459931  0.74134881  0.32401867    -0.94500
O767        O  0.72108590  0.70577289  0.29601974    -0.92900
O768        O  0.79645241  0.67746869  0.20060998    -0.93200
O769        O  0.81291799  0.71460557  0.26088765    -0.92000
C770        C  0.72516609  0.72051694  0.32913866     1.17000
H771        H  0.75953161  0.68722701  0.14907191     0.33000
H772        H  0.79969980  0.76706643  0.21858686     0.43800
H773        H  0.70469558  0.74851382  0.25722612     0.37400
H774        H  0.73219105  0.77713237  0.08567696     0.33800
H775        H  0.84313307  0.71970914  0.18402296     0.25600
H776        H  0.77453931  0.83213577  0.10359588     0.31600
H777        H  0.71009411  0.82310390  0.15260449     0.37500
H778        H  0.80348393  0.67111133  0.17179447     0.31900
H779        H  0.74038320  0.65888204  0.20710087     0.30800
H780        H  0.68225033  0.68572628  0.24629048     0.32500
H781        H  0.66754571  0.76793188  0.23375315     0.31500
H782        H  0.80185320  0.70493324  0.28011148     0.35500
H783        H  0.77881307  0.74239066  0.33571303     0.28200
H784        H  0.73241726  0.71805059  0.00171492     0.32400
H785        H  0.66600148  0.78382978  0.11724746     0.35300
H786        H  0.75053421  0.66949926  0.25271605     0.27900
H787        H  0.79526215  0.76241595  0.31584389     0.40800
H788        H  0.82090330  0.77856654  0.10618614     0.30800
H789        H  0.83564837  0.74486042  0.16555554     0.38400
H790        H  0.66570782  0.74668316  0.19896544     0.30300
H791        H  0.74922009  0.82204363  0.09340997     0.30300
H792        H  0.71542371  0.73806809  0.02044961     0.30600
Zr793      Zr  0.54419079  0.41641175  0.16254168     2.17500
O794        O  0.55969571  0.44520105  0.10701764    -0.51800
O795        O  0.51042741  0.43939083  0.18591869    -0.75000
O796        O  0.52134629  0.41595156  0.09265062    -0.81700
O797        O  0.59525859  0.43601619  0.23234960    -0.83500
O798        O  0.51381067  0.37678304  0.07695801    -0.79100
O799        O  0.55992526  0.44813158  0.20978011    -0.90700
O800        O  0.49404669  0.41889729  0.24630788    -0.76700
O801        O  0.51603699  0.38505216  0.17291399    -0.86200
O802        O  0.54300841  0.40964684  0.24391033    -0.85900
O803        O  0.55860457  0.38326248  0.11844441    -0.72600
O804        O  0.58371896  0.40605010  0.18350074    -0.84800
Zr805      Zr  0.57048429  0.33295751  0.22925128     2.26400
Zr806      Zr  0.53130937  0.35090280  0.13299799     2.06300
Zr807      Zr  0.58215909  0.39767007  0.26465906     2.10000
Zr808      Zr  0.51474156  0.37894143  0.25348584     1.78800
O809        O  0.61633851  0.41506915  0.30298313    -0.93600
O810        O  0.47453091  0.36821049  0.23166066    -0.41400
O811        O  0.55420677  0.36562270  0.27422208    -0.78000
O812        O  0.52991219  0.34360418  0.21389370    -0.96700
O813        O  0.57111393  0.34152811  0.14973805    -0.90000
O814        O  0.59788683  0.36521851  0.21984937    -0.92900
C815        C  0.49537452  0.43741916  0.21894732     1.00900
C816        C  0.58214922  0.45132692  0.21192737     1.13800
C817        C  0.51244204  0.39916667  0.06826499     1.04600
O818        O  0.49049290  0.33739016  0.14220716    -0.95000
O819        O  0.53548967  0.30725466  0.13046980    -0.90800
O820        O  0.55940827  0.29658398  0.18939817    -0.83900
C821        C  0.54697972  0.29164387  0.15390536     1.11200
O822        O  0.61163132  0.40744060  0.09248087    -0.97000
Zr823      Zr  0.59809373  0.37376411  0.13928891     1.88900
O824        O  0.60452962  0.31206753  0.19229622    -0.73600
O825        O  0.53512357  0.33434906  0.05561244    -0.52900
O826        O  0.60014868  0.36461551  0.05722395    -0.97600
O827        O  0.63910051  0.38285146  0.15862285    -0.54800
O828        O  0.61716691  0.33598214  0.13338530    -0.74200
C829        C  0.61727514  0.31634633  0.15582832     0.98200
O830        O  0.55848921  0.30314958  0.28666618    -0.63000
O831        O  0.56196411  0.41408809  0.33204985    -0.57800
O832        O  0.59462851  0.33239679  0.29630644    -0.94500
O833        O  0.60431125  0.37080572  0.31420730    -0.92900
O834        O  0.51215949  0.39209044  0.33333786    -0.93200
O835        O  0.49644199  0.34952672  0.30497921    -0.92000
C836        C  0.60547863  0.34810107  0.32010464     1.17000
H837        H  0.53803496  0.42342177  0.26137988     0.33000
H838        H  0.51969164  0.33007261  0.22042916     0.43800
H839        H  0.61358330  0.36078255  0.22939894     0.37400
H840        H  0.55879548  0.38729658  0.08603322     0.33800
H841        H  0.46427917  0.37644695  0.25440946     0.25600
H842        H  0.51885421  0.33381876  0.04327771     0.31600
H843        H  0.61632780  0.35842728  0.05192788     0.37500
H844        H  0.52411240  0.38250502  0.34978039     0.31900
H845        H  0.57055245  0.40749474  0.35876841     0.30800
H846        H  0.60993111  0.42337711  0.33042748     0.32500
H847        H  0.64542488  0.36804010  0.17246686     0.31500
H848        H  0.50965634  0.33910201  0.31437293     0.35500
H849        H  0.55024652  0.31246424  0.31088070     0.28200
H850        H  0.54586239  0.45394159  0.09504626     0.32400
H851        H  0.62687297  0.40235778  0.07863660     0.35300
H852        H  0.56605188  0.43132190  0.33166218     0.27900
H853        H  0.54571027  0.29366860  0.27230451     0.40800
H854        H  0.48680082  0.32945004  0.11267336     0.30800
H855        H  0.47178778  0.37683188  0.20234480     0.38400
H856        H  0.63796381  0.39421892  0.18462933     0.30300
H857        H  0.54343898  0.34680874  0.03716415     0.30300
H858        H  0.56561145  0.43548424  0.08095544     0.30600
Zr859      Zr  0.52576216  0.07186573  0.17304844     2.17500
O860        O  0.50212113  0.04714778  0.22551310    -0.51800
O861        O  0.51500594  0.03620540  0.13028912    -0.75000
O862        O  0.48754557  0.09091272  0.16558429    -0.81700
O863        O  0.58690695  0.05352531  0.20923215    -0.83500
O864        O  0.48531533  0.12790267  0.18896270    -0.79100
O865        O  0.54908258  0.05503750  0.23592120    -0.90700
O866        O  0.51947901  0.04446507  0.05405333    -0.76700
O867        O  0.51224888  0.09558729  0.11022578    -0.86200
O868        O  0.55298854  0.06192476  0.11254646    -0.85900
O869        O  0.52811731  0.11319887  0.19866296    -0.72600
O870        O  0.56344290  0.08635866  0.19351202    -0.84800
Zr871      Zr  0.58130003  0.13963830  0.09948791     2.26400
Zr872      Zr  0.51596390  0.13713694  0.13236178     2.06300
Zr873      Zr  0.59097455  0.07514866  0.13650925     2.10000
Zr874      Zr  0.53883606  0.08527434  0.04967728     1.78800
O875        O  0.62560961  0.05431421  0.16506096    -0.93600
O876        O  0.50156618  0.09124530  0.00974019    -0.41400
O877        O  0.57764708  0.09867192  0.07301053    -0.78000
O878        O  0.54269943  0.12779461  0.07051613    -0.96700
O879        O  0.55411946  0.14869107  0.15945311    -0.90000
O880        O  0.59419916  0.11563893  0.16248648    -0.92900
C881        C  0.51374307  0.03008781  0.08775107     1.00900
C882        C  0.57108998  0.04980573  0.24075173     1.13800
C883        C  0.48000082  0.10597274  0.19480871     1.04600
O884        O  0.49360979  0.13649985  0.06100692    -0.95000
O885        O  0.53042421  0.17861064  0.12893947    -0.90800
O886        O  0.56550645  0.17985268  0.09050758    -0.83900
C887        C  0.54790723  0.19016663  0.11038872     1.11200
O888        O  0.55113075  0.11713816  0.29961187    -0.97000
Zr889      Zr  0.56667760  0.12545898  0.22244152     1.88900
O890        O  0.61205796  0.15831527  0.14990995    -0.73600
O891        O  0.48565436  0.16803205  0.13619949    -0.52900
O892        O  0.54929441  0.16228299  0.25136858    -0.97600
O893        O  0.59279959  0.10617557  0.27740171    -0.54800
O894        O  0.59991193  0.15252530  0.22417455    -0.74200
C895        C  0.61456587  0.16072383  0.19409160     0.98200
O896        O  0.59855750  0.16382604  0.03747035    -0.63000
O897        O  0.59655259  0.04283818  0.08141207    -0.57800
O898        O  0.60743588  0.11471492  0.05537517    -0.94500
O899        O  0.62685755  0.09420640  0.10811751    -0.92900
O900        O  0.56208799  0.06092114  0.99677440    -0.93200
O901        O  0.54575661  0.10226149  0.97318632    -0.92000
C902        C  0.62670320  0.10816793  0.07338368     1.17000
H903        H  0.55452669  0.04510736  0.10630171     0.33000
H904        H  0.53918182  0.13759247  0.04398711     0.43800
H905        H  0.61036667  0.11754710  0.17209436     0.37400
H906        H  0.51924177  0.11538191  0.22684341     0.33800
H907        H  0.50287310  0.08132143  0.98164004     0.25600
H908        H  0.47032061  0.15972316  0.13181803     0.31600
H909        H  0.53200393  0.15994327  0.24809033     0.37500
H910        H  0.56148925  0.04458690  0.00998447     0.31900
H911        H  0.61256084  0.04566087  0.06818431     0.30800
H912        H  0.63236595  0.06509055  0.18860085     0.32500
H913        H  0.60300331  0.11913116  0.28941169     0.31500
H914        H  0.55951651  0.11310586  0.97697339     0.35500
H915        H  0.61560332  0.16496439  0.04478902     0.28200
H916        H  0.50952953  0.03115920  0.22509326     0.32400
H917        H  0.55686986  0.13044263  0.31903975     0.35300
H918        H  0.59819066  0.02829513  0.10064258     0.27900
H919        H  0.59787400  0.15370050  0.00958447     0.40800
H920        H  0.47905005  0.12733338  0.06878453     0.30800
H921        H  0.48958826  0.08283136  0.02908669     0.38400
H922        H  0.60354123  0.09633463  0.25822902     0.30300
H923        H  0.48532630  0.17340909  0.16869755     0.30300
H924        H  0.50515786  0.05341660  0.25672020     0.30600
Zr925      Zr  0.96409039  0.08159368  0.66454467     2.17500
O926        O  0.97241186  0.04974260  0.60964339    -0.51800
O927        O  0.98803926  0.06105858  0.72064083    -0.75000
O928        O  0.99900099  0.08929102  0.61734129    -0.81700
O929        O  0.90583403  0.04985389  0.69703241    -0.83500
O930        O  0.01227311  0.12526344  0.64062251    -0.79100
O931        O  0.94335916  0.04448905  0.67058711    -0.90700
O932        O  0.97093404  0.07028079  0.78901064    -0.76700
O933        O  0.98078431  0.11157933  0.71246288    -0.86200
O934        O  0.93792671  0.08288424  0.72945034    -0.85900
O935        O  0.96244580  0.11735046  0.61864205    -0.72600
O936        O  0.92491398  0.08909165  0.63596629    -0.84800
Zr937      Zr  0.91532499  0.15890220  0.70136204     2.26400
Zr938      Zr  0.97839268  0.14785296  0.66749847     2.06300
Zr939      Zr  0.89952455  0.09277702  0.70249027     2.10000
Zr940      Zr  0.95472611  0.11181047  0.77745534     1.78800
O941        O  0.86893572  0.07741094  0.65188126    -0.93600
O942        O  0.99291053  0.12084131  0.81176908    -0.41400
O943        O  0.91595220  0.12352821  0.74998922    -0.78000
O944        O  0.95320152  0.14901764  0.73389436    -0.96700
O945        O  0.94042811  0.15668084  0.63579619    -0.90000
O946        O  0.89907887  0.12781440  0.65574221    -0.92900
C947        C  0.98278344  0.05590498  0.76253770     1.00900
C948        C  0.92321470  0.03660702  0.68417449     1.13800
C949        C  0.01170535  0.10816389  0.61159736     1.04600
O950        O  0.00914442  0.16263397  0.71844421    -0.95000
O951        O  0.97365060  0.19095496  0.67693918    -0.90800
O952        O  0.93576735  0.19723671  0.70079020    -0.83900
C953        C  0.95671489  0.20462714  0.69023862     1.11200
O954        O  0.93296439  0.09808821  0.52688322    -0.97000
Zr955      Zr  0.92431659  0.12495147  0.59068388     1.88900
O956        O  0.89277960  0.17879103  0.63896218    -0.73600
O957        O  0.99575679  0.16883974  0.60140505    -0.52900
O958        O  0.94698847  0.14423837  0.52892368    -0.97600
O959        O  0.88953238  0.10879778  0.55229339    -0.54800
O960        O  0.89987369  0.15851841  0.57294387    -0.74200
C961        C  0.88971841  0.17525706  0.59532667     0.98200
O962        O  0.90548891  0.18485032  0.76599477    -0.63000
O963        O  0.88164381  0.07489534  0.77128427    -0.57800
O964        O  0.87455133  0.15455100  0.72284056    -0.94500
O965        O  0.86398880  0.11529648  0.72397324    -0.92900
O966        O  0.93060978  0.09652068  0.84130693    -0.93200
O967        O  0.95189071  0.13822470  0.84378541    -0.92000
C968        C  0.85940096  0.13769786  0.72833806     1.17000
H969        H  0.93661936  0.06792557  0.74582844     0.33000
H970        H  0.95827533  0.16189936  0.75363345     0.43800
H971        H  0.88319134  0.13134441  0.64599661     0.37400
H972        H  0.97105045  0.11671976  0.58996522     0.33800
H973        H  0.00221065  0.10601390  0.80826565     0.25600
H974        H  0.01304191  0.16893164  0.60664410     0.31600
H975        H  0.94754395  0.16133081  0.53755759     0.37500
H976        H  0.93244493  0.07894874  0.84023455     0.31900
H977        H  0.87111820  0.06209951  0.75965523     0.30800
H978        H  0.85721734  0.06974435  0.67292221     0.32500
H979        H  0.88728603  0.11920719  0.52501041     0.31500
H980        H  0.93989252  0.15019566  0.83503465     0.35500
H981        H  0.90001014  0.17395576  0.79095087     0.28200
H982        H  0.98871976  0.04447711  0.61616394     0.32400
H983        H  0.93830369  0.08314411  0.54177892     0.35300
H984        H  0.89472174  0.06629459  0.78641654     0.27900
H985        H  0.89119382  0.19370606  0.75661214     0.40800
H986        H  0.02219710  0.15100117  0.71552909     0.30800
H987        H  0.00057555  0.13235525  0.79027719     0.38400
H988        H  0.87598416  0.11250069  0.57290347     0.30300
H989        H  0.99343864  0.15797136  0.57496041     0.30300
H990        H  0.97330773  0.05747491  0.57890669     0.30600
Zr991      Zr  0.92902974  0.42745316  0.69378129     2.17500
O992        O  0.92511750  0.45673187  0.75543077    -0.51800
O993        O  0.94837577  0.45733838  0.64664087    -0.75000
O994        O  0.96381915  0.42926421  0.74243015    -0.81700
O995        O  0.86254283  0.43034498  0.68911553    -0.83500
O996        O  0.98700456  0.39941607  0.71643492    -0.79100
O997        O  0.89499724  0.45239642  0.67822555    -0.90700
O998        O  0.95151360  0.44176537  0.57470209    -0.76700
O999        O  0.95641789  0.40455762  0.64966562    -0.86200
O1000       O  0.90957106  0.42067191  0.62195788    -0.85900
O1001       O  0.93592308  0.39145526  0.73761841    -0.72600
O1002       O  0.89308909  0.40604971  0.71144915    -0.84800
Zr1003     Zr  0.90669960  0.33976230  0.64304539     2.26400
Zr1004     Zr  0.96168250  0.36747301  0.69049775     2.06300
Zr1005     Zr  0.87400113  0.39794996  0.63884193     2.10000
Zr1006     Zr  0.93732066  0.39868779  0.57854054     1.78800
O1007       O  0.83302237  0.41136579  0.63697477    -0.93600
O1008       O  0.97813265  0.39779125  0.55058016    -0.41400
O1009       O  0.90170809  0.37498834  0.59513298    -0.78000
O1010       O  0.94245309  0.36076899  0.61905702    -0.96700
O1011       O  0.92627570  0.34728209  0.71296280    -0.90000
O1012       O  0.88009258  0.36374384  0.68661143    -0.92900
C1013       C  0.95390846  0.45923020  0.60390212     1.00900
C1014       C  0.87508031  0.44880196  0.69804499     1.13800
C1015       C  0.98251376  0.41636735  0.74454630     1.04600
O1016       O  0.99656808  0.36058649  0.64252112    -0.95000
O1017       O  0.96751235  0.32393375  0.68959365    -0.90800
O1018       O  0.93334344  0.30789283  0.66233599    -0.83900
C1019       C  0.95418768  0.30609832  0.67873173     1.11200
O1020       O  0.89429342  0.39896379  0.82042014    -0.97000
Zr1021     Zr  0.90013125  0.37139688  0.75669987     1.88900
O1022       O  0.88170384  0.31675501  0.69954928    -0.73600
O1023       O  0.98026604  0.35300450  0.76066935    -0.52900
O1024       O  0.92228735  0.36206705  0.82595428    -0.97600
O1025       O  0.85911566  0.36793779  0.78312577    -0.54800
O1026       O  0.89382385  0.32947053  0.76913645    -0.74200
C1027       C  0.88122375  0.31588025  0.74415971     0.98200
O1028       O  0.91150795  0.31078103  0.58094906    -0.63000
O1029       O  0.86934441  0.41545939  0.56242904    -0.57800
O1030       O  0.87060188  0.33260544  0.60356702    -0.94500
O1031       O  0.84734869  0.36352386  0.62393892    -0.92900
O1032       O  0.91477935  0.41413404  0.51399430    -0.93200
O1033       O  0.94295347  0.37467290  0.50945738    -0.92000
C1034       C  0.85032095  0.34170274  0.61083064     1.17000
H1035       H  0.90607249  0.43527167  0.60555652     0.33000
H1036       H  0.95202004  0.35028155  0.60026703     0.43800
H1037       H  0.86530186  0.35611535  0.69478839     0.37400
H1038       H  0.94315576  0.39455465  0.76699667     0.33800
H1039       H  0.97808588  0.40726781  0.52166264     0.25600
H1040       H  0.99709986  0.35065299  0.75221155     0.31600
H1041       H  0.93456461  0.35069446  0.81551745     0.37500
H1042       H  0.92657896  0.42288191  0.49478051     0.31900
H1043       H  0.85806707  0.40472376  0.54662486     0.30800
H1044       H  0.82628157  0.40455442  0.60848939     0.32500
H1045       H  0.85350686  0.38456117  0.78661345     0.31500
H1046       H  0.93313353  0.36020280  0.51498832     0.35500
H1047       H  0.90543449  0.31887741  0.55309972     0.28200
H1048       H  0.93880245  0.46774408  0.75178752     0.32400
H1049       H  0.90671105  0.41134046  0.81596682     0.35300
H1050       H  0.86046023  0.43042270  0.56762664     0.27900
H1051       H  0.92878628  0.30991327  0.57517603     0.40800
H1052       H  0.00031458  0.37636018  0.62862700     0.30800
H1053       H  0.98703227  0.40786642  0.57248570     0.38400
H1054       H  0.86006511  0.36165284  0.81501606     0.30300
H1055       H  0.98021456  0.36664113  0.78228482     0.30300
H1056       H  0.92794453  0.44795182  0.78453935     0.30600
Zr1057     Zr  0.72924249  0.22455878  0.02323661     2.17500
O1058       O  0.73018685  0.19857876  0.09101099    -0.51800
O1059       O  0.69923312  0.24911216  0.06042998    -0.75000
O1060       O  0.75436855  0.23925327  0.08388617    -0.81700
O1061       O  0.68546023  0.18374993  0.96017591    -0.83500
O1062       O  0.78690814  0.25844510  0.05461120    -0.79100
O1063       O  0.70245620  0.19078116  0.02950430    -0.90700
O1064       O  0.69204932  0.27967257  0.01086758    -0.76700
O1065       O  0.74484266  0.26234900  0.99963940    -0.86200
O1066       O  0.70258235  0.23783543  0.96547843    -0.85900
O1067       O  0.76914455  0.21771044  0.99727458    -0.72600
O1068       O  0.73028047  0.19573078  0.96288317    -0.84800
Zr1069     Zr  0.75840477  0.23899010  0.85285405     2.26400
Zr1070     Zr  0.78421830  0.25552193  0.96986516     2.06300
Zr1071     Zr  0.70435655  0.20966335  0.90365309     2.10000
Zr1072     Zr  0.71807996  0.27566235  0.94271597     1.78800
O1073       O  0.69495144  0.17114064  0.86935091    -0.93600
O1074       O  0.73092481  0.31339767  0.97612853    -0.41400
O1075       O  0.71918026  0.24779039  0.87970564    -0.78000
O1076       O  0.75740698  0.26920273  0.91192763    -0.96700
O1077       O  0.78501414  0.22591951  0.91061608    -0.90000
O1078       O  0.74344971  0.20134322  0.87737719    -0.92900
C1079       C  0.68818753  0.26813316  0.04882652     1.00900
C1080       C  0.68828305  0.17929440  0.00324266     1.13800
C1081       C  0.77384610  0.25076485  0.08835980     1.04600
O1082       O  0.79360751  0.29721803  0.98532335    -0.95000
O1083       O  0.81186340  0.26933793  0.90739168    -0.90800
O1084       O  0.79513623  0.25927098  0.83906524    -0.83900
C1085       C  0.81162335  0.26877527  0.86269694     1.11200
O1086       O  0.77539842  0.16180301  0.00192955    -0.97000
Zr1087     Zr  0.76957920  0.18874964  0.93696454     1.88900
O1088       O  0.77850313  0.20658195  0.81188645    -0.73600
O1089       O  0.82298551  0.24061511  0.99169403    -0.52900
O1090       O  0.81142012  0.18355966  0.95362389    -0.97600
O1091       O  0.75488944  0.14835650  0.92354245    -0.54800
O1092       O  0.78720764  0.17807933  0.86460868    -0.74200
C1093       C  0.78768509  0.18649241  0.82357289     0.98200
O1094       O  0.76292344  0.26837412  0.79088477    -0.63000
O1095       O  0.66363029  0.22359349  0.89960097    -0.57800
O1096       O  0.73027858  0.23345645  0.79157037    -0.94500
O1097       O  0.69796265  0.21383951  0.82004178    -0.92900
O1098       O  0.67922218  0.28403196  0.91114861    -0.93200
O1099       O  0.71821267  0.30831089  0.88697011    -0.92000
C1100       C  0.70989963  0.22372252  0.78692846     1.17000
H1101       H  0.68647596  0.23859432  0.97676586     0.33000
H1102       H  0.76333494  0.28408133  0.89918224     0.43800
H1103       H  0.74244942  0.18988506  0.85264998     0.37400
H1104       H  0.77861086  0.21196411  0.02249506     0.33800
H1105       H  0.72805432  0.31157397  0.00970000     0.25600
H1106       H  0.83150613  0.25478700  0.00358398     0.31600
H1107       H  0.81980220  0.19529978  0.93360065     0.37500
H1108       H  0.66809368  0.27382136  0.92914555     0.31900
H1109       H  0.65621995  0.21341529  0.87585610     0.30800
H1110       H  0.67809748  0.17231731  0.86066839     0.32500
H1111       H  0.75326455  0.14712489  0.88967482     0.31500
H1112       H  0.72698041  0.30205539  0.85988985     0.35500
H1113       H  0.76469320  0.25913497  0.76199863     0.28200
H1114       H  0.72619927  0.20883563  0.11770770     0.32400
H1115       H  0.76258984  0.16588337  0.02404804     0.35300
H1116       H  0.65607687  0.21834595  0.92892154     0.27900
H1117       H  0.74739798  0.27637302  0.78849440     0.40800
H1118       H  0.80965069  0.29688694  0.99870729     0.30800
H1119       H  0.74837294  0.31336038  0.97272847     0.38400
H1120       H  0.73838533  0.14845627  0.93538103     0.30300
H1121       H  0.82011916  0.23040090  0.01916745     0.30300
H1122       H  0.74701656  0.19429347  0.09509662     0.30600
Zr1123     Zr  0.71688155  0.25025529  0.35415562     2.17500
O1124       O  0.70307805  0.27512787  0.29068252    -0.51800
O1125       O  0.69283478  0.22282621  0.30981453    -0.75000
O1126       O  0.74586298  0.25353931  0.29120144    -0.81700
O1127       O  0.66934062  0.27642344  0.43728184    -0.83500
O1128       O  0.78106752  0.23748487  0.31178193    -0.79100
O1129       O  0.68667248  0.28045517  0.36649325    -0.90700
O1130       O  0.69434349  0.18660471  0.34434867    -0.76700
O1131       O  0.74019695  0.21520516  0.36267941    -0.86200
O1132       O  0.69456063  0.22579411  0.40705376    -0.85900
O1133       O  0.75476220  0.26377760  0.38117819    -0.72600
O1134       O  0.71281505  0.27163843  0.42458605    -0.84800
Zr1135     Zr  0.75247052  0.22740130  0.51578663     2.26400
Zr1136     Zr  0.77754835  0.22805395  0.39415872     2.06300
Zr1137     Zr  0.69194597  0.24689473  0.47917669     2.10000
Zr1138     Zr  0.71802609  0.19103704  0.41538739     1.78800
O1139       O  0.66781742  0.27294902  0.52732376    -0.93600
O1140       O  0.73927838  0.15949938  0.37502982    -0.41400
O1141       O  0.71545622  0.21208951  0.48783900    -0.78000
O1142       O  0.75582886  0.20318857  0.44734929    -0.96700
O1143       O  0.77328233  0.25173540  0.46182581    -0.90000
O1144       O  0.72878731  0.26184230  0.50646328    -0.92900
C1145       C  0.68700664  0.20072195  0.31220058     1.00900
C1146       C  0.67141777  0.28643612  0.39752921     1.13800
C1147       C  0.76727618  0.24726875  0.28224786     1.04600
O1148       O  0.79034117  0.18947648  0.36495410    -0.95000
O1149       O  0.80946367  0.21731443  0.44867216    -0.90800
O1150       O  0.79339548  0.21671771  0.52065904    -0.83900
C1151       C  0.81094605  0.21452236  0.49287542     1.11200
O1152       O  0.74636546  0.32017488  0.39885910    -0.97000
Zr1153     Zr  0.74941906  0.28595575  0.45067984     1.88900
O1154       O  0.77197870  0.25939689  0.56008276    -0.73600
O1155       O  0.81556451  0.24733868  0.37798586    -0.52900
O1156       O  0.78903554  0.30178089  0.43563199    -0.97600
O1157       O  0.72533415  0.31869188  0.47987835    -0.54800
O1158       O  0.76577343  0.29475178  0.52357617    -0.74200
C1159       C  0.77421649  0.28230762  0.55624386     0.98200
O1160       O  0.75769868  0.19267143  0.56568967    -0.63000
O1161       O  0.65741744  0.22070689  0.47560836    -0.57800
O1162       O  0.72763164  0.22512194  0.58351124    -0.94500
O1163       O  0.69120205  0.23819132  0.56300407    -0.92900
O1164       O  0.68113388  0.17367306  0.44457618    -0.93200
O1165       O  0.72048272  0.15366677  0.45834317    -0.92000
C1166       C  0.70604116  0.23013998  0.59272929     1.17000
H1167       H  0.67889823  0.22233143  0.39576756     0.33000
H1168       H  0.76500893  0.18913767  0.45424346     0.43800
H1169       H  0.72644402  0.27019671  0.53522419     0.37400
H1170       H  0.76266445  0.27414576  0.35915861     0.33800
H1171       H  0.74357789  0.16654113  0.34468867     0.25600
H1172       H  0.82245377  0.23851178  0.35158842     0.31600
H1173       H  0.78937095  0.31743735  0.45141859     0.37500
H1174       H  0.66878839  0.17945407  0.42337017     0.31900
H1175       H  0.65528448  0.21464075  0.50750723     0.30800
H1176       H  0.65183286  0.26558853  0.52749489     0.32500
H1177       H  0.72039108  0.31362340  0.51129613     0.31500
H1178       H  0.73375326  0.15615069  0.47986256     0.35500
H1179       H  0.76494154  0.18031772  0.54576873     0.28200
H1180       H  0.70334240  0.26468030  0.26322524     0.32400
H1181       H  0.75698933  0.31662102  0.37244083     0.35300
H1182       H  0.64390847  0.23159840  0.47088634     0.27900
H1183       H  0.77022698  0.19716590  0.58771063     0.40800
H1184       H  0.80683910  0.19226346  0.35433363     0.30800
H1185       H  0.75452368  0.15803075  0.39128743     0.38400
H1186       H  0.71058014  0.31796712  0.46177936     0.30300
H1187       H  0.81151998  0.26324097  0.36534706     0.30300
H1188       H  0.71574135  0.28711352  0.28488513     0.30600
Zr1189     Zr  0.41640108  0.01923599  0.39805281     2.17500
O1190       O  0.44726239  0.99499060  0.36199896    -0.51800
O1191       O  0.43991200  0.99898863  0.45572518    -0.75000
O1192       O  0.44881865  0.04381967  0.36974693    -0.81700
O1193       O  0.36519468  0.97998507  0.35244891    -0.83500
O1194       O  0.44579470  0.08066691  0.40110935    -0.79100
O1195       O  0.40424082  0.98881154  0.34300708    -0.90700
O1196       O  0.42918856  0.01403349  0.52497046    -0.76700
O1197       O  0.41762735  0.04720887  0.45958108    -0.86200
O1198       O  0.38819252  0.00361262  0.45213712    -0.85900
O1199       O  0.40516205  0.05730203  0.36498154    -0.72600
O1200       O  0.37890906  0.01976710  0.36136657    -0.84800
Zr1201     Zr  0.33995913  0.07112081  0.43798969     2.26400
Zr1202     Zr  0.40520889  0.08493311  0.42819125     2.06300
Zr1203     Zr  0.35026027  0.00509783  0.41460414     2.10000
Zr1204     Zr  0.38926232  0.03204789  0.51297820     1.78800
O1205       O  0.32577400  0.97321791  0.38286885    -0.93600
O1206       O  0.40788372  0.05875822  0.56816123    -0.41400
O1207       O  0.35075659  0.03376037  0.47550550    -0.78000
O1208       O  0.37628642  0.06993392  0.48219315    -0.96700
O1209       O  0.36921058  0.08491288  0.38529499    -0.90000
O1210       O  0.33940530  0.04227777  0.37823065    -0.92900
C1211       C  0.44339437  0.00193206  0.49885165     1.00900
C1212       C  0.38515994  0.97783134  0.33134861     1.13800
C1213       C  0.45394169  0.06616202  0.37084881     1.04600
O1214       O  0.43088068  0.10308058  0.48532456    -0.95000
O1215       O  0.38606788  0.11905566  0.46591152    -0.90800
O1216       O  0.34690720  0.10960978  0.47154048    -0.83900
C1217       C  0.36455981  0.12352478  0.47791497     1.11200
O1218       O  0.39077190  0.03692980  0.26292812    -0.97000
Zr1219     Zr  0.36875559  0.05611876  0.32516646     1.88900
O1220       O  0.32601438  0.09968050  0.37646014    -0.73600
O1221       O  0.41214028  0.11752817  0.37370452    -0.52900
O1222       O  0.38933493  0.08353767  0.27266154    -0.97600
O1223       O  0.34013080  0.03667269  0.27499896    -0.54800
O1224       O  0.34291164  0.08886823  0.30884474    -0.74200
C1225       C  0.32971574  0.10276454  0.33247852     0.98200
O1226       O  0.30909373  0.08228405  0.49324461    -0.63000
O1227       O  0.34914170  0.97675054  0.47862544    -0.57800
O1228       O  0.30161352  0.05121631  0.43871476    -0.94500
O1229       O  0.30782532  0.01204824  0.42204885    -0.92900
O1230       O  0.37757456  0.99544606  0.55316530    -0.93200
O1231       O  0.36867986  0.03760068  0.58632443    -0.92000
C1232       C  0.29434264  0.02984026  0.43100826     1.17000
H1233       H  0.39244773  0.98772520  0.46207699     0.33000
H1234       H  0.37504580  0.08037664  0.50849893     0.43800
H1235       H  0.32432400  0.04154298  0.36297291     0.37400
H1236       H  0.41501775  0.06272076  0.33981646     0.33800
H1237       H  0.41730505  0.04820383  0.58827982     0.25600
H1238       H  0.41292505  0.10974304  0.34313218     0.31600
H1239       H  0.37834647  0.08598737  0.24671614     0.37500
H1240       H  0.39257179  0.98686840  0.55852911     0.31900
H1241       H  0.33230510  0.97602586  0.48838388     0.30800
H1242       H  0.31848063  0.96490159  0.40969339     0.32500
H1243       H  0.32519809  0.04558340  0.27937243     0.31500
H1244       H  0.35771262  0.05099886  0.58060945     0.35500
H1245       H  0.31737327  0.08621466  0.52219940     0.28200
H1246       H  0.46224252  0.99942462  0.37729484     0.32400
H1247       H  0.38146482  0.03956006  0.23464880     0.35300
H1248       H  0.35228562  0.96100213  0.46444060     0.27900
H1249       H  0.30271654  0.09766893  0.48200653     0.40800
H1250       H  0.43927824  0.11608194  0.46848595     0.30800
H1251       H  0.41983658  0.06779200  0.54985228     0.38400
H1252       H  0.33709125  0.02084965  0.28936656     0.30300
H1253       H  0.39713439  0.12657074  0.37338669     0.30300
H1254       H  0.44908211  0.00127990  0.33017306     0.30600
Zr1255     Zr  0.07462264  0.05920958  0.44698830     2.17500
O1256       O  0.04204328  0.05900094  0.50169980    -0.51800
O1257       O  0.04729519  0.03078293  0.41485055    -0.75000
O1258       O  0.04888934  0.09069469  0.41832215    -0.81700
O1259       O  0.11447428  0.02104308  0.51764055    -0.83500
O1260       O  0.06646177  0.12604679  0.41634741    -0.79100
O1261       O  0.08000207  0.04153907  0.52298777    -0.90700
O1262       O  0.05487143  0.03174952  0.33819951    -0.76700
O1263       O  0.07762962  0.07367468  0.37002186    -0.86200
O1264       O  0.09554160  0.02788708  0.40888187    -0.85900
O1265       O  0.09544525  0.09685061  0.45242894    -0.72600
O1266       O  0.11259811  0.05636994  0.48006823    -0.84800
Zr1267     Zr  0.15787484  0.07740078  0.37141667     2.26400
Zr1268     Zr  0.09996902  0.11053412  0.37298234     2.06300
Zr1269     Zr  0.13425341  0.02608329  0.44265100     2.10000
Zr1270     Zr  0.09791719  0.04229668  0.33170589     1.78800
O1271       O  0.14954614  0.99433207  0.49152149    -0.93600
O1272       O  0.08207961  0.05750702  0.25959804    -0.41400
O1273       O  0.13713229  0.03973627  0.36495692    -0.78000
O1274       O  0.12046587  0.07956919  0.33190740    -0.96700
O1275       O  0.13669258  0.10727278  0.41228695    -0.90000
O1276       O  0.15491108  0.06345210  0.44859066    -0.92900
C1277       C  0.04092433  0.02769465  0.37311859     1.00900
C1278       C  0.09606569  0.02816068  0.54033204     1.13800
C1279       C  0.05000521  0.11235191  0.43153332     1.04600
O1280       O  0.08449518  0.10981151  0.29494436    -0.95000
O1281       O  0.13442194  0.13668292  0.35886240    -0.90800
O1282       O  0.15999410  0.11215134  0.32345437    -0.83900
C1283       C  0.15373039  0.13290245  0.33621510     1.11200
O1284       O  0.11059479  0.09479190  0.56135919    -0.97000
Zr1285     Zr  0.13269278  0.09267520  0.48889815     1.88900
O1286       O  0.18518250  0.10488260  0.41178012    -0.73600
O1287       O  0.08947806  0.15092919  0.34886101    -0.52900
O1288       O  0.12774469  0.13356492  0.51558945    -0.97600
O1289       O  0.15458065  0.07369179  0.55099809    -0.54800
O1290       O  0.16993242  0.11247915  0.48293115    -0.74200
C1291       C  0.18572279  0.11502116  0.45162587     0.98200
O1292       O  0.18153625  0.06902429  0.30248569    -0.63000
O1293       O  0.12675807  0.98926942  0.40052346    -0.57800
O1294       O  0.19073746  0.05116745  0.38459599    -0.94500
O1295       O  0.17765794  0.02283871  0.43540288    -0.92900
O1296       O  0.09576436  0.99921556  0.32055392    -0.93200
O1297       O  0.12068314  0.02865516  0.26514096    -0.92000
C1298       C  0.19408554  0.03340329  0.41164644     1.17000
H1299       H  0.08742675  0.01268372  0.41134386     0.33000
H1300       H  0.12335399  0.08451983  0.30038392     0.43800
H1301       H  0.17007865  0.06243739  0.46340396     0.37400
H1302       H  0.08760769  0.10742278  0.47358667     0.33800
H1303       H  0.07671353  0.04308419  0.24290476     0.25600
H1304       H  0.07230312  0.15055475  0.34241218     0.31600
H1305       H  0.11629637  0.14069757  0.49399192     0.37500
H1306       H  0.08544436  0.99710375  0.29346983     0.31900
H1307       H  0.14269048  0.98278227  0.39386445     0.30800
H1308       H  0.15977994  0.00256833  0.51406757     0.32500
H1309       H  0.17153149  0.07587388  0.54297405     0.31500
H1310       H  0.13332568  0.04083621  0.26102541     0.35500
H1311       H  0.17841936  0.05192882  0.29610688     0.28200
H1312       H  0.02766858  0.06161792  0.48328173     0.32400
H1313       H  0.09420831  0.09008834  0.55346849     0.35300
H1314       H  0.11980669  0.97815828  0.42369134     0.27900
H1315       H  0.17371689  0.07745682  0.27679948     0.40800
H1316       H  0.06709107  0.10932372  0.29925584     0.30800
H1317       H  0.06722226  0.06558539  0.26870093     0.38400
H1318       H  0.15159751  0.05635418  0.54722039     0.30300
H1319       H  0.09101413  0.16090578  0.37681775     0.30300
H1320       H  0.04441793  0.07380932  0.51956254     0.30600
Zr1321     Zr  0.41625141  0.47009250  0.88652188     2.17500
O1322       O  0.44181359  0.49448700  0.93487410    -0.51800
O1323       O  0.44384379  0.49101939  0.83598007    -0.75000
O1324       O  0.44731606  0.44606881  0.91989405    -0.81700
O1325       O  0.36609610  0.51574543  0.89624380    -0.83500
O1326       O  0.44356066  0.40778327  0.89447740    -0.79100
O1327       O  0.39558611  0.49847553  0.93612750    -0.90700
O1328       O  0.44390295  0.46696637  0.77429703    -0.76700
O1329       O  0.42324619  0.44269656  0.82510368    -0.86200
O1330       O  0.39330446  0.48550425  0.82430862    -0.85900
O1331       O  0.40390655  0.43105217  0.91459862    -0.72600
O1332       O  0.37590428  0.46936657  0.91076522    -0.84800
Zr1333     Zr  0.34466234  0.41855205  0.82216764     2.26400
Zr1334     Zr  0.40826435  0.40477594  0.84912374     2.06300
Zr1335     Zr  0.35231036  0.48335991  0.84832221     2.10000
Zr1336     Zr  0.40050985  0.45768375  0.76390740     1.78800
O1337       O  0.32545321  0.51462592  0.87405595    -0.93600
O1338       O  0.41936609  0.43508481  0.70198112    -0.41400
O1339       O  0.35888548  0.45559531  0.78790278    -0.78000
O1340       O  0.38417274  0.41911181  0.78795231    -0.96700
O1341       O  0.36950411  0.40512016  0.88190763    -0.90000
O1342       O  0.33973735  0.44627704  0.88310198    -0.92900
C1343       C  0.45483956  0.48090861  0.80281318     1.00900
C1344       C  0.37808129  0.51301213  0.93289009     1.13800
C1345       C  0.45349319  0.42407434  0.91845778     1.04600
O1346       O  0.42950417  0.39765503  0.77706980    -0.95000
O1347       O  0.38490005  0.36805211  0.84900989    -0.90800
O1348       O  0.35218790  0.37714098  0.80791025    -0.83900
C1349       C  0.36593609  0.36234116  0.82775673     1.11200
O1350       O  0.38499230  0.44513460  0.01241284    -0.97000
Zr1351     Zr  0.36441471  0.43249305  0.94306896     1.88900
O1352       O  0.32412797  0.39090136  0.87711616    -0.73600
O1353       O  0.42668548  0.36570874  0.85832808    -0.52900
O1354       O  0.37469584  0.40080516  0.99704029    -0.97600
O1355       O  0.33483664  0.45478896  0.98679238    -0.54800
O1356       O  0.33462913  0.40237428  0.94909893    -0.74200
C1357       C  0.32404263  0.38839308  0.92146794     0.98200
O1358       O  0.32423802  0.40804371  0.75139988    -0.63000
O1359       O  0.35243724  0.50469032  0.77501033    -0.57800
O1360       O  0.30552931  0.43646480  0.81933452    -0.94500
O1361       O  0.30984759  0.47541880  0.83843665    -0.92900
O1362       O  0.40101962  0.49752972  0.72959891    -0.93200
O1363       O  0.38257691  0.45892912  0.68794205    -0.92000
C1364       C  0.29692252  0.45714600  0.82841605     1.17000
H1365       H  0.39805279  0.50165879  0.81661682     0.33000
H1366       H  0.38447053  0.40808798  0.76241830     0.43800
H1367       H  0.32387822  0.44652166  0.89570792     0.37400
H1368       H  0.41190622  0.42555986  0.94178346     0.33800
H1369       H  0.43554050  0.43168508  0.71289924     0.25600
H1370       H  0.44320086  0.36771881  0.84716366     0.31600
H1371       H  0.36230154  0.40114216  0.02144591     0.37500
H1372       H  0.41778199  0.50273326  0.73083093     0.31900
H1373       H  0.33553910  0.50561010  0.76652047     0.30800
H1374       H  0.32526385  0.52638664  0.84846705     0.32500
H1375       H  0.31986472  0.44575243  0.98301612     0.31500
H1376       H  0.36638465  0.45245759  0.69281060     0.35500
H1377       H  0.32400542  0.42309819  0.73335873     0.28200
H1378       H  0.45823002  0.49131710  0.92435776     0.32400
H1379       H  0.37288003  0.44492140  0.03735332     0.35300
H1380       H  0.35688540  0.52130172  0.78296042     0.27900
H1381       H  0.33540556  0.39773220  0.73419476     0.40800
H1382       H  0.42165450  0.38344657  0.76371886     0.30800
H1383       H  0.41128957  0.41934373  0.70159239     0.38400
H1384       H  0.33255595  0.46973903  0.96905046     0.30300
H1385       H  0.42803320  0.36305181  0.89191769     0.30300
H1386       H  0.44065927  0.48706513  0.96587809     0.30600
Zr1387     Zr  0.07292404  0.46481276  0.89356940     2.17500
O1388       O  0.03536067  0.47639854  0.85982762    -0.51800
O1389       O  0.05691020  0.49404099  0.94723376    -0.75000
O1390       O  0.04227484  0.43880514  0.92577080    -0.81700
O1391       O  0.11625889  0.49639886  0.81278291    -0.83500
O1392       O  0.04995093  0.40013425  0.92046970    -0.79100
O1393       O  0.07754886  0.48559199  0.81904196    -0.90700
O1394       O  0.06851312  0.47819331  0.01458697    -0.76700
O1395       O  0.07954177  0.44340896  0.96354898    -0.86200
O1396       O  0.10479362  0.48680032  0.92711081    -0.85900
O1397       O  0.08291255  0.42412563  0.87327948    -0.72600
O1398       O  0.10700461  0.46024542  0.84612579    -0.84800
Zr1399     Zr  0.15508135  0.42150874  0.92366480     2.26400
Zr1400     Zr  0.09093085  0.40316063  0.94498427     2.06300
Zr1401     Zr  0.13908010  0.48191026  0.87748220     2.10000
Zr1402     Zr  0.11036564  0.46556023  0.99754959     1.78800
O1403       O  0.15622866  0.51288236  0.82775951    -0.93600
O1404       O  0.10326304  0.44724360  0.07278581    -0.41400
O1405       O  0.14548732  0.46162000  0.94827667    -0.78000
O1406       O  0.12272973  0.42526226  0.97887770    -0.96700
O1407       O  0.12306143  0.40018778  0.89064231    -0.90000
O1408       O  0.14794206  0.44194702  0.85376187    -0.92900
C1409       C  0.05328979  0.48984067  0.99019107     1.00900
C1410       C  0.09511202  0.49525318  0.79694358     1.13800
C1411       C  0.03707067  0.41816733  0.91062090     1.04600
O1412       O  0.07001057  0.39788726  0.01816525    -0.95000
O1413       O  0.11688425  0.37428909  0.98425119    -0.90800
O1414       O  0.15476262  0.38467003  0.96494959    -0.83900
C1415       C  0.13948833  0.37113485  0.98480497     1.11200
O1416       O  0.08849917  0.43001804  0.75825004    -0.97000
Zr1417     Zr  0.11539094  0.42122767  0.82116989     1.88900
O1418       O  0.17114029  0.39273441  0.86608571    -0.73600
O1419       O  0.08314336  0.36216982  0.92116627    -0.52900
O1420       O  0.09367639  0.38497585  0.80163961    -0.97600
O1421       O  0.13359491  0.43627758  0.74998047    -0.54800
O1422       O  0.14663941  0.39378814  0.80501138    -0.74200
C1423       C  0.16486007  0.38583863  0.82539714     0.98200
O1424       O  0.18596011  0.42033270  0.98182206    -0.63000
O1425       O  0.14517505  0.51551804  0.92931396    -0.57800
O1426       O  0.19154334  0.43954553  0.89623967    -0.94500
O1427       O  0.18203045  0.47571082  0.86611998    -0.92900
O1428       O  0.11582126  0.50762182  0.01626476    -0.93200
O1429       O  0.14062049  0.47143812  0.05565452    -0.92000
C1430       C  0.19693023  0.45902866  0.87517734     1.17000
H1431       H  0.10079179  0.50339922  0.93150115     0.33000
H1432       H  0.12720283  0.41779058  0.00753844     0.43800
H1433       H  0.16090266  0.44109072  0.83190273     0.37400
H1434       H  0.07056364  0.41716508  0.85523645     0.33800
H1435       H  0.09560755  0.45993120  0.09127514     0.25600
H1436       H  0.06909514  0.35709004  0.93949503     0.31600
H1437       H  0.10169091  0.37212034  0.81891414     0.37500
H1438       H  0.10367764  0.51089500  0.04024552     0.31900
H1439       H  0.16255326  0.51656113  0.93301773     0.30800
H1440       H  0.16960669  0.51978144  0.84513738     0.32500
H1441       H  0.14961845  0.42924981  0.74859398     0.31500
H1442       H  0.15452692  0.46257636  0.04385643     0.35500
H1443       H  0.19114025  0.43715830  0.98537685     0.28200
H1444       H  0.03685872  0.49352058  0.85148736     0.32400
H1445       H  0.09085094  0.41710817  0.73542124     0.35300
H1446       H  0.14101532  0.52988514  0.91117043     0.27900
H1447       H  0.17752553  0.41670722  0.01115750     0.40800
H1448       H  0.08234184  0.39289806  0.04013739     0.30800
H1449       H  0.09047296  0.43544812  0.06745720     0.38400
H1450       H  0.13641871  0.45347520  0.75587504     0.30300
H1451       H  0.07734657  0.36353107  0.88918481     0.30300
H1452       H  0.03449472  0.46778291  0.83023958     0.30600
Zr1453     Zr  0.25614748  0.26785509  0.72956545     2.17500
O1454       O  0.22644780  0.26798615  0.79124703    -0.51800
O1455       O  0.28926585  0.28803601  0.76759323    -0.75000
O1456       O  0.26846156  0.24346525  0.79366803    -0.81700
O1457       O  0.21708607  0.31403951  0.67568334    -0.83500
O1458       O  0.29279854  0.21468640  0.76520803    -0.79100
O1459       O  0.23447099  0.30408377  0.74350331    -0.90700
O1460       O  0.31669517  0.29450210  0.71145482    -0.76700
O1461       O  0.29401511  0.25753038  0.70051540    -0.86200
O1462       O  0.26400056  0.29494340  0.66735283    -0.85900
O1463       O  0.25219364  0.22674351  0.70698760    -0.72600
O1464       O  0.22492492  0.26090981  0.67493427    -0.84800
Zr1465     Zr  0.26974315  0.23765716  0.55997996     2.26400
Zr1466     Zr  0.29082995  0.21669774  0.67943077     2.06300
Zr1467     Zr  0.23302544  0.28839510  0.61297452     2.10000
Zr1468     Zr  0.30167325  0.28407695  0.63779125     1.78800
O1469       O  0.19063737  0.28872743  0.59877657    -0.93600
O1470       O  0.34350547  0.27411456  0.63161390    -0.41400
O1471       O  0.27132453  0.27866823  0.58259667    -0.78000
O1472       O  0.30028054  0.24331430  0.61573621    -0.96700
O1473       O  0.26167480  0.21011359  0.62126847    -0.90000
O1474       O  0.23112055  0.24760624  0.58737168    -0.92900
C1475       C  0.30994662  0.29479922  0.75359873     1.00900
C1476       C  0.22074131  0.31710388  0.71931917     1.13800
C1477       C  0.28240578  0.22574267  0.79885312     1.04600
O1478       O  0.33175674  0.21085138  0.70199398    -0.95000
O1479       O  0.31243509  0.19473320  0.62019460    -0.90800
O1480       O  0.29992503  0.20730731  0.55008548    -0.83900
C1481       C  0.31316573  0.19440916  0.57585805     1.11200
O1482       O  0.19593377  0.21356662  0.71272712    -0.97000
Zr1483     Zr  0.22333360  0.22009965  0.64826373     1.88900
O1484       O  0.24634015  0.20644779  0.52502229    -0.73600
O1485       O  0.27956616  0.17581286  0.69922377    -0.52900
O1486       O  0.22245243  0.17974699  0.68011594    -0.97600
O1487       O  0.18310383  0.22601674  0.62095123    -0.54800
O1488       O  0.22182294  0.19292901  0.58214369    -0.74200
C1489       C  0.23092409  0.19175180  0.54131422     0.98200
O1490       O  0.29443427  0.24564715  0.49206035    -0.63000
O1491       O  0.23865913  0.32950145  0.58695779    -0.57800
O1492       O  0.25340509  0.26154128  0.49818666    -0.94500
O1493       O  0.23053244  0.29129496  0.52803772    -0.92900
O1494       O  0.30420687  0.32755177  0.63849880    -0.93200
O1495       O  0.31963141  0.29918654  0.56657723    -0.92000
C1496       C  0.23979960  0.27969964  0.49396554     1.17000
H1497       H  0.26453078  0.31132645  0.67764389     0.33000
H1498       H  0.31559867  0.23967548  0.60261790     0.43800
H1499       H  0.21965517  0.24581773  0.56313975     0.37400
H1500       H  0.24791174  0.21686706  0.73319304     0.33800
H1501       H  0.35192056  0.28931214  0.63791573     0.25600
H1502       H  0.28195101  0.16667700  0.67039813     0.31600
H1503       H  0.23444058  0.17085848  0.66202913     0.37500
H1504       H  0.32130213  0.33113127  0.64163087     0.31900
H1505       H  0.22256202  0.33639707  0.58735873     0.30800
H1506       H  0.18319201  0.28806159  0.62981811     0.32500
H1507       H  0.18412901  0.22489192  0.58693183     0.31500
H1508       H  0.31239367  0.28963538  0.54169651     0.35500
H1509       H  0.31086653  0.24637029  0.50353657     0.28200
H1510       H  0.23513706  0.27180179  0.81980111     0.32400
H1511       H  0.18222605  0.20482094  0.69990525     0.35300
H1512       H  0.24693587  0.33755365  0.61255896     0.27900
H1513       H  0.29370075  0.23089703  0.47335989     0.40800
H1514       H  0.33674166  0.22651027  0.71450788     0.30800
H1515       H  0.34657520  0.26403765  0.65902232     0.38400
H1516       H  0.17971021  0.24303405  0.62713298     0.30300
H1517       H  0.29226821  0.17020344  0.71980195     0.30300
H1518       H  0.22148730  0.25107220  0.79489169     0.30600
Zr1519     Zr  0.26261120  0.23688765  0.23028993     2.17500
O1520       O  0.29260901  0.23897277  0.29001301    -0.51800
O1521       O  0.23284441  0.21210562  0.26824944    -0.75000
O1522       O  0.24860784  0.26072136  0.29381158    -0.81700
O1523       O  0.29657248  0.18638838  0.17798428    -0.83500
O1524       O  0.22607682  0.29100513  0.26593366    -0.79100
O1525       O  0.28364068  0.20067895  0.24684750    -0.90700
O1526       O  0.20287366  0.20690178  0.21749952    -0.76700
O1527       O  0.22426862  0.24724257  0.20455315    -0.86200
O1528       O  0.25369146  0.20945252  0.17015481    -0.85900
O1529       O  0.26615051  0.27785257  0.20604931    -0.72600
O1530       O  0.29381173  0.24260632  0.17422590    -0.84800
Zr1531     Zr  0.24806191  0.26630453  0.06162186     2.26400
Zr1532     Zr  0.22723525  0.28792490  0.18054550     2.06300
Zr1533     Zr  0.28468843  0.21475550  0.11426965     2.10000
Zr1534     Zr  0.21591909  0.22047786  0.14309582     1.78800
O1535       O  0.32757512  0.21593866  0.10499980    -0.93600
O1536       O  0.17375746  0.22924837  0.14633534    -0.41400
O1537       O  0.24623078  0.22529495  0.08597974    -0.78000
O1538       O  0.21762871  0.26092613  0.11887292    -0.96700
O1539       O  0.25682486  0.29389586  0.12141421    -0.90000
O1540       O  0.28662474  0.25547400  0.08685495    -0.92900
C1541       C  0.21225776  0.20445929  0.25706294     1.00900
C1542       C  0.29417086  0.18479811  0.22267529     1.13800
C1543       C  0.23569744  0.27923122  0.29920691     1.04600
O1544       O  0.18616617  0.29142861  0.20573322    -0.95000
O1545       O  0.20389057  0.30878592  0.12243135    -0.90800
O1546       O  0.21810690  0.29682946  0.05290951    -0.83900
C1547       C  0.20374213  0.30896122  0.07799830     1.11200
O1548       O  0.32375678  0.28970755  0.20727358    -0.97000
Zr1549     Zr  0.29530658  0.28323290  0.14590762     1.88900
O1550       O  0.27096936  0.29805891  0.02482940    -0.73600
O1551       O  0.23635285  0.32984986  0.19449644    -0.52900
O1552       O  0.29768974  0.32403511  0.17454793    -0.97600
O1553       O  0.33542836  0.27398382  0.12014217    -0.54800
O1554       O  0.29920365  0.30822599  0.07630452    -0.74200
C1555       C  0.28884276  0.31065996  0.03716324     0.98200
O1556       O  0.22079848  0.25795867  0.99869503    -0.63000
O1557       O  0.28271955  0.17439800  0.08334287    -0.57800
O1558       O  0.26527084  0.24360185  0.99889697    -0.94500
O1559       O  0.28630091  0.21249119  0.02855281    -0.92900
O1560       O  0.21499492  0.17715890  0.13426003    -0.93200
O1561       O  0.19496482  0.20893976  0.07364167    -0.92000
C1562       C  0.27800340  0.22482540  0.99451566     1.17000
H1563       H  0.25272406  0.19321388  0.18137121     0.33000
H1564       H  0.20223898  0.26432913  0.10642179     0.43800
H1565       H  0.29799196  0.25701604  0.06189796     0.37400
H1566       H  0.27053079  0.28784601  0.23169941     0.33800
H1567       H  0.16617179  0.21429934  0.15761085     0.25600
H1568       H  0.24084927  0.33639618  0.16384412     0.31600
H1569       H  0.28667711  0.33321537  0.15505332     0.37500
H1570       H  0.21560550  0.17051779  0.16591171     0.31900
H1571       H  0.29933056  0.16886439  0.08289050     0.30800
H1572       H  0.33323256  0.20160611  0.12156736     0.32500
H1573       H  0.34498726  0.28828777  0.12775009     0.31500
H1574       H  0.19315361  0.22399337  0.05605919     0.35500
H1575       H  0.22139221  0.24045779  0.99404687     0.28200
H1576       H  0.28450027  0.23369628  0.31877534     0.32400
H1577       H  0.31535966  0.28466822  0.23585126     0.35300
H1578       H  0.27487256  0.16473144  0.10781646     0.27900
H1579       H  0.20470224  0.26054958  0.01146503     0.40800
H1580       H  0.18304069  0.27680149  0.22418942     0.30800
H1581       H  0.17201045  0.24057849  0.17226437     0.38400
H1582       H  0.33484698  0.27395152  0.08605038     0.30300
H1583       H  0.22081812  0.33716052  0.20150945     0.30300
H1584       H  0.29567562  0.25623987  0.29445885     0.30600
C1585       C  0.23349491  0.28745011  0.34774481    -0.00600
C1586       C  0.21329687  0.28144246  0.37422925    -0.12500
C1587       C  0.21400420  0.28158743  0.42291889     0.01700
C1588       C  0.23530229  0.28730556  0.44563300    -0.00700
C1589       C  0.25475879  0.29518432  0.41907345    -0.12400
C1590       C  0.25396587  0.29542552  0.37074970     0.01500
H1591       H  0.19756350  0.27498584  0.35704427     0.14500
H1592       H  0.27125064  0.29948844  0.43607417     0.14500
C1593       C  0.27513873  0.30194189  0.34516795     0.36200
C1594       C  0.19330085  0.27406572  0.44881011     0.36100
N1595       N  0.29202894  0.30706774  0.32438182    -0.44200
N1596       N  0.17666550  0.26817517  0.46964007    -0.44200
C1597       C  0.28581883  0.21813884  0.84767323    -0.00600
C1598       C  0.26669018  0.20699593  0.87074341    -0.12500
C1599       C  0.26504582  0.20676447  0.91922793     0.01700
C1600       C  0.28291374  0.21758989  0.94592900    -0.00700
C1601       C  0.30289125  0.22715860  0.92299533    -0.12400
C1602       C  0.30440673  0.22760976  0.87439966     0.01500
H1603       H  0.25198741  0.20022777  0.85077149     0.14500
H1604       H  0.31644140  0.23607550  0.94293739     0.14500
C1605       C  0.32414439  0.23990536  0.85280550     0.36200
C1606       C  0.24380558  0.19722943  0.94070758     0.36100
N1607       N  0.34003640  0.24979390  0.83575910    -0.44200
N1608       N  0.22671828  0.18967611  0.95780870    -0.44200
C1609       C  0.17922550  0.36791086  0.79868392    -0.00600
C1610       C  0.20325864  0.36447136  0.80874917    -0.12500
C1611       C  0.21737229  0.34884821  0.78230255     0.01700
C1612       C  0.20757508  0.33614247  0.74467144    -0.00700
C1613       C  0.18380991  0.33982152  0.73416924    -0.12400
C1614       C  0.16960277  0.35507113  0.76067569     0.01500
H1615       H  0.21121596  0.37433902  0.83678458     0.14500
H1616       H  0.17593069  0.32986205  0.70612849     0.14500
C1617       C  0.14492380  0.35609284  0.74834598     0.36200
C1618       C  0.24213043  0.34693774  0.79340981     0.36100
N1619       N  0.12525677  0.35653708  0.73766249    -0.44200
N1620       N  0.26202324  0.34555795  0.80202498    -0.44200
C1621       C  0.18516425  0.32311703  0.05372162    -0.00600
C1622       C  0.16824062  0.33599029  0.07966519    -0.12500
C1623       C  0.15111606  0.35015908  0.05794474     0.01700
C1624       C  0.15006292  0.35087317  0.00947802    -0.00700
C1625       C  0.16573649  0.33686408  0.98371420    -0.12400
C1626       C  0.18349058  0.32366203  0.00479609     0.01500
H1627       H  0.16897453  0.33590119  0.11700114     0.14500
H1628       H  0.16546612  0.33804441  0.94632081     0.14500
C1629       C  0.20059141  0.31262555  0.97431419     0.36200
C1630       C  0.13637138  0.36553011  0.08575033     0.36100
N1631       N  0.21434067  0.30419874  0.94947769    -0.44200
N1632       N  0.12467848  0.37804396  0.10789224    -0.44200
C1633       C  0.35865020  0.33736823  0.82503043    -0.00600
C1634       C  0.33763039  0.33091133  0.84817254    -0.12500
C1635       C  0.32199588  0.31433755  0.82899902     0.01700
C1636       C  0.32781466  0.30416906  0.78599671    -0.00700
C1637       C  0.35124354  0.30675554  0.76903789    -0.12400
C1638       C  0.36650456  0.32367014  0.78769339     0.01500
H1639       H  0.33208455  0.34094537  0.87795815     0.14500
H1640       H  0.35680954  0.29763769  0.73784649     0.14500
C1641       C  0.38838604  0.32923199  0.76362869     0.36200
C1642       C  0.29966563  0.30986279  0.85219522     0.36100
N1643       N  0.40582003  0.33371475  0.74405732    -0.44200
N1644       N  0.28192363  0.30624844  0.87137354    -0.44200
C1645       C  0.27046743  0.45944505  0.83217373    -0.00600
C1646       C  0.26069646  0.47975684  0.85391872    -0.12500
C1647       C  0.23656094  0.48067916  0.86644591     0.01700
C1648       C  0.22166595  0.46098203  0.85764372    -0.00700
C1649       C  0.23091662  0.44144289  0.83340627    -0.12400
C1650       C  0.25479578  0.44058188  0.82010114     0.01500
H1651       H  0.27210491  0.49456232  0.86332846     0.14500
H1652       H  0.21938742  0.42645797  0.82540089     0.14500
C1653       C  0.26242905  0.41980162  0.79469523     0.36200
C1654       C  0.22790117  0.50126147  0.89108117     0.36100
N1655       N  0.26828745  0.40307367  0.77430504    -0.44200
N1656       N  0.22096028  0.51775373  0.91088852    -0.44200
C1657       C  0.31420235  0.36669237  0.94450676    -0.00600
C1658       C  0.32984640  0.35435282  0.97326040    -0.12500
C1659       C  0.32211527  0.33620218  0.00301591     0.01700
C1660       C  0.29799686  0.32931576  0.00412743    -0.00700
C1661       C  0.28238127  0.34087522  0.97340464    -0.12400
C1662       C  0.29028016  0.35961490  0.94404621     0.01500
H1663       H  0.34840165  0.35951005  0.97345140     0.14500
H1664       H  0.26380370  0.33590244  0.97352243     0.14500
C1665       C  0.27348713  0.37225914  0.91607019     0.36200
C1666       C  0.33965602  0.32532427  0.03205123     0.36100
N1667       N  0.26013282  0.38263020  0.89372160    -0.44200
N1668       N  0.35414149  0.31715138  0.05505700    -0.44200
C1669       C  0.22362645  0.17156322  0.51173391    -0.00600
C1670       C  0.22668062  0.14823157  0.52832862    -0.12500
C1671       C  0.21759469  0.12858856  0.50435795     0.01700
C1672       C  0.20460398  0.13215438  0.46361766    -0.00700
C1673       C  0.20337075  0.15528501  0.44492922    -0.12400
C1674       C  0.21303420  0.17494603  0.46830266     0.01500
H1675       H  0.23553887  0.14540907  0.56089183     0.14500
H1676       H  0.19288670  0.15835508  0.41445713     0.14500
C1677       C  0.20996964  0.19850268  0.44892213     0.36200
C1678       C  0.22055518  0.10497112  0.52362948     0.36100
N1679       N  0.20744801  0.21727566  0.43292020    -0.44200
N1680       N  0.22314977  0.08606737  0.53901685    -0.44200
C1681       C  0.19881638  0.18985793  0.28985757    -0.00600
C1682       C  0.20879513  0.16811740  0.30227372    -0.12500
C1683       C  0.19459313  0.14950169  0.31865653     0.01700
C1684       C  0.16983305  0.15296597  0.32460155    -0.00700
C1685       C  0.16038364  0.17576260  0.31694099    -0.12400
C1686       C  0.17464185  0.19409578  0.29873642     0.01500
H1687       H  0.22742765  0.16494522  0.29517369     0.14500
H1688       H  0.14160017  0.17879708  0.32204303     0.14500
C1689       C  0.16397917  0.21665989  0.28688050     0.36200
C1690       C  0.20623050  0.12702534  0.32720011     0.36100
N1691       N  0.15556381  0.23476675  0.27714062    -0.44200
N1692       N  0.21618560  0.10930933  0.33344169    -0.44200
C1693       C  0.35868929  0.14568818  0.50206723    -0.00600
C1694       C  0.35832352  0.14520100  0.55034764    -0.12500
C1695       C  0.34456008  0.16142315  0.57559760     0.01700
C1696       C  0.33049018  0.17843059  0.55207420    -0.00700
C1697       C  0.33262912  0.17993466  0.50362663    -0.12400
C1698       C  0.34648293  0.16378747  0.47875036     0.01500
H1699       H  0.36742548  0.13095748  0.56827779     0.14500
H1700       H  0.32278471  0.19321545  0.48459401     0.14500
C1701       C  0.34682022  0.16520878  0.42899955     0.36200
C1702       C  0.34454482  0.15919117  0.62523285     0.36100
N1703       N  0.34717729  0.16646124  0.38915968    -0.44200
N1704       N  0.34466020  0.15737912  0.66500380    -0.44200
C1705       C  0.26856252  0.02595678  0.42892549    -0.00600
C1706       C  0.25857970  0.02142123  0.38578690    -0.12500
C1707       C  0.23404013  0.02215544  0.37992347     0.01700
C1708       C  0.21900005  0.02646360  0.41812994    -0.00700
C1709       C  0.22895756  0.02921373  0.46203185    -0.12400
C1710       C  0.25362465  0.02939490  0.46751278     0.01500
H1711       H  0.27006323  0.01894779  0.35597723     0.14500
H1712       H  0.21756387  0.03300673  0.49141275     0.14500
C1713       C  0.26333966  0.03391820  0.51251699     0.36200
C1714       C  0.22479931  0.01985809  0.33391328     0.36100
N1715       N  0.27133379  0.03752644  0.54842127    -0.44200
N1716       N  0.21748672  0.01821956  0.29693228    -0.44200
C1717       C  0.31946787  0.12372079  0.30553162    -0.00600
C1718       C  0.32688241  0.12714148  0.25895658    -0.12500
C1719       C  0.31909392  0.14639299  0.23151191     0.01700
C1720       C  0.30319428  0.16336486  0.24970378    -0.00700
C1721       C  0.29561296  0.15996091  0.29618684    -0.12400
C1722       C  0.30349914  0.14071037  0.32381001     0.01500
H1723       H  0.33925008  0.11476385  0.24336764     0.14500
H1724       H  0.28330516  0.17249200  0.31153281     0.14500
C1725       C  0.29489551  0.13915962  0.37078528     0.36200
C1726       C  0.32828977  0.14843149  0.18504205     0.36100
N1727       N  0.28795953  0.13820294  0.40845592    -0.44200
N1728       N  0.33569785  0.15005558  0.14779572    -0.44200
C1729       C  0.78078333  0.25488605  0.13675577    -0.00600
C1730       C  0.79107157  0.23587037  0.16094931    -0.12500
C1731       C  0.78903516  0.23414131  0.20925075     0.01700
C1732       C  0.77590185  0.25140845  0.23400527    -0.00700
C1733       C  0.76788536  0.27170250  0.21009471    -0.12400
C1734       C  0.77042049  0.27363178  0.16201692     0.01500
H1735       H  0.79887318  0.22124486  0.14174927     0.14500
H1736       H  0.75833497  0.28546465  0.22867436     0.14500
C1737       C  0.76045070  0.29405801  0.13885981     0.36200
C1738       C  0.79846503  0.21323906  0.23164916     0.36100
N1739       N  0.75247774  0.31047167  0.12041465    -0.44200
N1740       N  0.80610782  0.19648180  0.24947914    -0.44200
C1741       C  0.70047369  0.22404528  0.73935489    -0.00600
C1742       C  0.70235783  0.20331296  0.71258762    -0.12500
C1743       C  0.70169474  0.20458401  0.66418226     0.01700
C1744       C  0.69876624  0.22685933  0.64175893    -0.00700
C1745       C  0.69439298  0.24715184  0.66871991    -0.12400
C1746       C  0.69545137  0.24593814  0.71711424     0.01500
H1747       H  0.70640930  0.18645576  0.72922598     0.14500
H1748       H  0.69230231  0.26436246  0.65196931     0.14500
C1749       C  0.69304471  0.26771997  0.74321908     0.36200
C1750       C  0.70553008  0.18301359  0.63804298     0.36100
N1751       N  0.69110997  0.28517067  0.76417272    -0.44200
N1752       N  0.70855352  0.16570927  0.61711854    -0.44200
C1753       C  0.99810221  0.41891758  0.78504690    -0.00600
C1754       C  0.99033877  0.43299913  0.82233865    -0.12500
C1755       C  0.00155412  0.43197796  0.86509471     0.01700
C1756       C  0.02072179  0.41630282  0.87144117    -0.00700
C1757       C  0.02784550  0.40167312  0.83478600    -0.12400
C1758       C  0.01779140  0.40375754  0.79146843     0.01500
H1759       H  0.97501037  0.44439269  0.81870233     0.14500
H1760       H  0.04253143  0.38948498  0.83892085     0.14500
C1761       C  0.02867510  0.39029956  0.75454138     0.36200
C1762       C  0.99236789  0.44659218  0.90195571     0.36100
N1763       N  0.03758200  0.37945273  0.72529918    -0.44200
N1764       N  0.98437370  0.45843368  0.93069606    -0.44200
C1765       C  0.86374140  0.30066130  0.76977098    -0.00600
C1766       C  0.87131930  0.28666384  0.80739393    -0.12500
C1767       C  0.85498585  0.27659782  0.83934267     0.01700
C1768       C  0.83051797  0.28051535  0.83405696    -0.00700
C1769       C  0.82308929  0.29429481  0.79630640    -0.12400
C1770       C  0.83923484  0.30461610  0.76506517     0.01500
H1771       H  0.89012520  0.28416993  0.81258161     0.14500
H1772       H  0.80435677  0.29773072  0.79201568     0.14500
C1773       C  0.83006342  0.32162300  0.73247908     0.36200
C1774       C  0.86371546  0.26206550  0.87654839     0.36100
N1775       N  0.82198283  0.33571840  0.70812703    -0.44200
N1776       N  0.87081540  0.25040317  0.90632870    -0.44200
C1777       C  0.82949145  0.32551300  0.60521018    -0.00600
C1778       C  0.80669220  0.33520258  0.60236723    -0.12500
C1779       C  0.78704484  0.32048248  0.59419313     0.01700
C1780       C  0.79014739  0.29569091  0.58691054    -0.00700
C1781       C  0.81220049  0.28567093  0.59555909    -0.12400
C1782       C  0.83176314  0.30013965  0.60499816     0.01500
H1783       H  0.80422096  0.35433380  0.60542051     0.14500
H1784       H  0.81467068  0.26662699  0.59112351     0.14500
C1785       C  0.85377329  0.28799997  0.61373653     0.36200
C1786       C  0.76392330  0.33127865  0.59204006     0.36100
N1787       N  0.87118052  0.27789748  0.62081101    -0.44200
N1788       N  0.74539851  0.33995358  0.59084521    -0.44200
C1789       C  0.03651785  0.11909817  0.47308436    -0.00600
C1790       C  0.04892680  0.12982645  0.50950762    -0.12500
C1791       C  0.04142353  0.12657902  0.55530820     0.01700
C1792       C  0.02117605  0.11248672  0.56473163    -0.00700
C1793       C  0.00718848  0.10471498  0.52765247    -0.12400
C1794       C  0.01436222  0.10852873  0.48217070     0.01500
H1795       H  0.06558080  0.13897025  0.50270877     0.14500
H1796       H  0.99066256  0.09525001  0.53393427     0.14500
C1797       C  0.99924152  0.10042561  0.44546457     0.36200
C1798       C  0.05548370  0.13668801  0.59172449     0.36100
N1799       N  0.98687877  0.09417895  0.41626298    -0.44200
N1800       N  0.06669433  0.14494356  0.62086041    -0.44200
C1801       C  0.83544567  0.14573532  0.74166094    -0.00600
C1802       C  0.82818592  0.16821956  0.72525656    -0.12500
C1803       C  0.81109437  0.18149403  0.74888792     0.01700
C1804       C  0.80032323  0.17171425  0.78888779    -0.00700
C1805       C  0.80462961  0.14754281  0.79998328    -0.12400
C1806       C  0.82231150  0.13463518  0.77726426     0.01500
H1807       H  0.83762499  0.17644254  0.69652675     0.14500
H1808       H  0.79566725  0.13929720  0.82929703     0.14500
C1809       C  0.82836566  0.11134551  0.79497251     0.36200
C1810       C  0.80710829  0.20580924  0.73408278     0.36100
N1811       N  0.83314250  0.09273762  0.80957212    -0.44200
N1812       N  0.80410235  0.22532436  0.72224229    -0.44200
C1813       C  0.96119832  0.23082311  0.69247091    -0.00600
C1814       C  0.97208456  0.24251085  0.65472104    -0.12500
C1815       C  0.97227428  0.26760640  0.65153981     0.01700
C1816       C  0.96206921  0.28137024  0.68708678    -0.00700
C1817       C  0.95317761  0.26976141  0.72659526    -0.12400
C1818       C  0.95259308  0.24475734  0.72954403     0.01500
H1819       H  0.97887310  0.23205475  0.62613992     0.14500
H1820       H  0.94503713  0.28024320  0.75381650     0.14500
C1821       C  0.94245635  0.23391923  0.77053988     0.36200
C1822       C  0.98126778  0.27883553  0.60998057     0.36100
N1823       N  0.93436780  0.22547022  0.80365676    -0.44200
N1824       N  0.98840359  0.28791007  0.57666552    -0.44200
C1825       C  0.87240962  0.18986566  0.56794427    -0.00600
C1826       C  0.87047639  0.18549681  0.51997679    -0.12500
C1827       C  0.85171527  0.19455694  0.49376580     0.01700
C1828       C  0.83392179  0.20822603  0.51533295    -0.00700
C1829       C  0.83703029  0.21442811  0.56211369    -0.12400
C1830       C  0.85604239  0.20580484  0.58811336     0.01500
H1831       H  0.88320533  0.17407380  0.50277314     0.14500
H1832       H  0.82405495  0.22560715  0.57916268     0.14500
C1833       C  0.85787869  0.21346315  0.63540951     0.36200
C1834       C  0.85066643  0.18837232  0.44554446     0.36100
N1835       N  0.85938678  0.21994008  0.67312477    -0.44200
N1836       N  0.85009388  0.18342761  0.40685508    -0.44200
C1837       C  0.46349832  0.07625225  0.32730293    -0.00600
C1838       C  0.45682928  0.06440186  0.28657799    -0.12500
C1839       C  0.45984761  0.07493069  0.24350756     0.01700
C1840       C  0.47109770  0.09733802  0.23980166    -0.00700
C1841       C  0.47754591  0.10954697  0.28025202    -0.12400
C1842       C  0.47365587  0.09926606  0.32387655     0.01500
H1843       H  0.44805769  0.04711104  0.28811226     0.14500
H1844       H  0.48625020  0.12683746  0.27783505     0.14500
C1845       C  0.48036065  0.11249618  0.36438965     0.36200
C1846       C  0.45171646  0.06191209  0.20360762     0.36100
N1847       N  0.48553835  0.12298466  0.39712755    -0.44200
N1848       N  0.44541226  0.05126515  0.17183253    -0.44200
C1849       C  0.63642538  0.17135075  0.21399641    -0.00600
C1850       C  0.63805019  0.19609496  0.22026230    -0.12500
C1851       C  0.65470177  0.20613839  0.25062297     0.01700
C1852       C  0.67032923  0.19122060  0.27610089    -0.00700
C1853       C  0.66921214  0.16648023  0.26799460    -0.12400
C1854       C  0.65256323  0.15657778  0.23766244     0.01500
H1855       H  0.62527290  0.20755121  0.20361124     0.14500
H1856       H  0.68099688  0.15464863  0.28635915     0.14500
C1857       C  0.65161241  0.13089748  0.23312384     0.36200
C1858       C  0.65382293  0.23169905  0.25702066     0.36100
N1859       N  0.65094067  0.11030957  0.22966925    -0.44200
N1860       N  0.65272283  0.25219457  0.26171876    -0.44200
C1861       C  0.67506584  0.15884143  0.02329568    -0.00600
C1862       C  0.66678648  0.14093420  0.99341692    -0.12500
C1863       C  0.65305374  0.12198308  0.01022533     0.01700
C1864       C  0.64799217  0.12043073  0.05763471    -0.00700
C1865       C  0.65783764  0.13691904  0.08804759    -0.12400
C1866       C  0.67068812  0.15650390  0.07133960     0.01500
H1867       H  0.67039646  0.14206844  0.95666884     0.14500
H1868       H  0.65320276  0.13600147  0.12443356     0.14500
C1869       C  0.67661320  0.17496443  0.10399765     0.36200
C1870       C  0.64310459  0.10496625  0.97830373     0.36100
N1871       N  0.68085793  0.18968423  0.13063679    -0.44200
N1872       N  0.63491557  0.09117225  0.95336883    -0.44200
C1873       C  0.49869227  0.40554972  0.02797190    -0.00600
C1874       C  0.47754985  0.39296685  0.02152512    -0.12500
C1875       C  0.46327562  0.39797793  0.98432699     0.01700
C1876       C  0.47013305  0.41613282  0.95290993    -0.00700
C1877       C  0.49136989  0.42865596  0.95889660    -0.12400
C1878       C  0.50605091  0.42308741  0.99575129     0.01500
H1879       H  0.47187202  0.37947485  0.04635905     0.14500
H1880       H  0.49638936  0.44272365  0.93484927     0.14500
C1881       C  0.52899628  0.43443696  0.99786445     0.36200
C1882       C  0.44088171  0.38540404  0.98158854     0.36100
N1883       N  0.54753410  0.44332774  0.99818200    -0.44200
N1884       N  0.42298926  0.37527171  0.98002020    -0.44200
C1885       C  0.62227337  0.33856585  0.35304307    -0.00600
C1886       C  0.64625505  0.34181291  0.34238810    -0.12500
C1887       C  0.66296348  0.32572476  0.35864857     0.01700
C1888       C  0.65554580  0.30632935  0.38681794    -0.00700
C1889       C  0.63195914  0.30504486  0.40226094    -0.12400
C1890       C  0.61521077  0.32088318  0.38510298     0.01500
H1891       H  0.65163487  0.35547290  0.31767473     0.14500
H1892       H  0.62622875  0.29056834  0.42481284     0.14500
C1893       C  0.59065796  0.31766084  0.39816963     0.36200
C1894       C  0.68730005  0.32904794  0.34411221     0.36100
N1895       N  0.57099421  0.31507902  0.40872060    -0.44200
N1896       N  0.70670330  0.33187271  0.33202201    -0.44200
C1897       C  0.54812879  0.21683894  0.11522769    -0.00600
C1898       C  0.52644250  0.22886010  0.12076102    -0.12500
C1899       C  0.52560389  0.25328270  0.13184947     0.01700
C1900       C  0.54674030  0.26626002  0.13863490    -0.00700
C1901       C  0.56843698  0.25451523  0.13223795    -0.12400
C1902       C  0.56937495  0.23027426  0.11981131     0.01500
H1903       H  0.50996452  0.21899916  0.11746133     0.14500
H1904       H  0.58481123  0.26437945  0.13704216     0.14500
C1905       C  0.59246458  0.21973182  0.11345061     0.36200
C1906       C  0.50279387  0.26417134  0.13897938     0.36100
N1907       N  0.61103949  0.21154719  0.10788742    -0.44200
N1908       N  0.48442135  0.27272899  0.14482089    -0.44200
C1909       C  0.63248484  0.29781207  0.13434861    -0.00600
C1910       C  0.65397031  0.29122271  0.15456461    -0.12500
C1911       C  0.67198079  0.28032831  0.12799298     0.01700
C1912       C  0.66894646  0.27682454  0.08003860    -0.00700
C1913       C  0.64687006  0.28194989  0.06087202    -0.12400
C1914       C  0.62866572  0.29189646  0.08760758     0.01500
H1915       H  0.65723067  0.29582563  0.19023435     0.14500
H1916       H  0.64394990  0.27852994  0.02456820     0.14500
C1917       C  0.60637921  0.29707126  0.06576092     0.36200
C1918       C  0.69383827  0.27411339  0.15010607     0.36100
N1919       N  0.58843483  0.30121568  0.04869476    -0.44200
N1920       N  0.71128007  0.26885192  0.16790597    -0.44200
C1921       C  0.71405488  0.70970946  0.47453911    -0.00600
C1922       C  0.73210582  0.69728717  0.45137036    -0.12500
C1923       C  0.73497086  0.69916931  0.40322469     0.01700
C1924       C  0.71927520  0.71324447  0.37723959    -0.00700
C1925       C  0.70011710  0.72410913  0.39993135    -0.12400
C1926       C  0.69746700  0.72252439  0.44811628     0.01500
H1927       H  0.74546544  0.68817113  0.47132575     0.14500
H1928       H  0.68815005  0.73522321  0.38036897     0.14500
C1929       C  0.67874282  0.73586020  0.47021807     0.36200
C1930       C  0.75574684  0.68889811  0.38198955     0.36100
N1931       N  0.66371929  0.74651780  0.48792077    -0.44200
N1932       N  0.77254739  0.68092492  0.36503206    -0.44200
C1933       C  0.76682006  0.77733072  0.87489497    -0.00600
C1934       C  0.78465096  0.76441152  0.89694968    -0.12500
C1935       C  0.78732571  0.76539180  0.94494673     0.01700
C1936       C  0.77174663  0.77911804  0.97229288    -0.00700
C1937       C  0.75497799  0.79347855  0.94995766    -0.12400
C1938       C  0.75265971  0.79292429  0.90150191     0.01500
H1939       H  0.79564178  0.75238722  0.87689624     0.14500
H1940       H  0.74265634  0.80385937  0.97049720     0.14500
C1941       C  0.73471569  0.80732180  0.88006435     0.36200
C1942       C  0.80524724  0.75084498  0.96597089     0.36100
N1943       N  0.72052404  0.81904991  0.86271345    -0.44200
N1944       N  0.81974292  0.73938669  0.98294084    -0.44200
C1945       C  0.98099118  0.51176382  0.02607499    -0.00600
C1946       C  0.98769084  0.48753955  0.02730862    -0.12500
C1947       C  0.01151214  0.48035026  0.02059104     0.01700
C1948       C  0.02954110  0.49735413  0.01035357    -0.00700
C1949       C  0.02309616  0.52167416  0.01147187    -0.12400
C1950       C  0.99938148  0.52890774  0.02011156     0.01500
H1951       H  0.97401165  0.47398353  0.03127257     0.14500
H1952       H  0.03646101  0.53511377  0.00362687     0.14500
C1953       C  0.99409718  0.55409184  0.01942921     0.36200
C1954       C  0.01661668  0.45511994  0.02094302     0.36100
N1955       N  0.98997690  0.57432267  0.01928267    -0.44200
N1956       N  0.02047103  0.43483458  0.02137165    -0.44200
C1957       C  0.88080051  0.47923639  0.82839635    -0.00600
C1958       C  0.88416075  0.49376929  0.78923665    -0.12500
C1959       C  0.87881408  0.48544851  0.74547384     0.01700
C1960       C  0.87033644  0.46195472  0.74047018    -0.00700
C1961       C  0.86448314  0.44834693  0.77987497    -0.12400
C1962       C  0.86974495  0.45677622  0.82383353     0.01500
H1963       H  0.89157335  0.51152415  0.79265250     0.14500
H1964       H  0.85795860  0.43018949  0.77627174     0.14500
C1965       C  0.86537002  0.44131384  0.86300871     0.36200
C1966       C  0.88374197  0.50068077  0.70610428     0.36100
N1967       N  0.86194741  0.42880006  0.89426775    -0.44200
N1968       N  0.88775316  0.51292539  0.67469109    -0.44200
C1969       C  0.81435766  0.62995479  0.86100734    -0.00600
C1970       C  0.82648113  0.64147921  0.82448676    -0.12500
C1971       C  0.81602767  0.65933648  0.79766985     0.01700
C1972       C  0.79245087  0.66668547  0.80677117    -0.00700
C1973       C  0.78039608  0.65561626  0.84442965    -0.12400
C1974       C  0.79107205  0.63744435  0.87128765     0.01500
H1975       H  0.84454490  0.63637860  0.81643481     0.14500
H1976       H  0.76236944  0.66079435  0.85246731     0.14500
C1977       C  0.77746963  0.62606548  0.90768623     0.36200
C1978       C  0.83037707  0.66962661  0.76106125     0.36100
N1979       N  0.76660415  0.61684471  0.93684498    -0.44200
N1980       N  0.84199794  0.67761802  0.73165808    -0.44200
C1981       C  0.85459635  0.66133085  0.00339128    -0.00600
C1982       C  0.83279093  0.66628422  0.98254322    -0.12500
C1983       C  0.81647965  0.68173572  0.00321688     0.01700
C1984       C  0.82222693  0.69289287  0.04532840    -0.00700
C1985       C  0.84575240  0.69097788  0.06130809    -0.12400
C1986       C  0.86179431  0.67510048  0.04102913     0.01500
H1987       H  0.82738684  0.65592611  0.95285691     0.14500
H1988       H  0.85112949  0.70031267  0.09220915     0.14500
C1989       C  0.88431408  0.67110002  0.06274965     0.36200
C1990       C  0.79354889  0.68407182  0.98220736     0.36100
N1991       N  0.90235006  0.66785513  0.08017392    -0.44200
N1992       N  0.77524480  0.68590481  0.96504888    -0.44200
C1993       C  0.53083371  0.49093519  0.82411568    -0.00600
C1994       C  0.51791693  0.50803291  0.79894644    -0.12500
C1995       C  0.49353569  0.50470021  0.78908137     0.01700
C1996       C  0.48152707  0.48341057  0.80242465    -0.00700
C1997       C  0.49478479  0.46584509  0.82536549    -0.12400
C1998       C  0.51886407  0.46947084  0.83653821     0.01500
H1999       H  0.52640747  0.52485119  0.78980747     0.14500
H2000       H  0.48590316  0.44963673  0.83701681     0.14500
C2001       C  0.53085002  0.45100050  0.86190292     0.36200
C2002       C  0.48092285  0.52399455  0.76747287     0.36100
N2003       N  0.54063495  0.43635899  0.88238916    -0.44200
N2004       N  0.47095335  0.53964228  0.75035174    -0.44200
C2005       C  0.60044971  0.48249500  0.08618258    -0.00600
C2006       C  0.58265893  0.49327230  0.11311166    -0.12500
C2007       C  0.57902682  0.48656856  0.15915799     0.01700
C2008       C  0.59278340  0.46813001  0.17829881    -0.00700
C2009       C  0.61274499  0.46016055  0.15387508    -0.12400
C2010       C  0.61665410  0.46705537  0.10808802     0.01500
H2011       H  0.57114497  0.50650623  0.09793586     0.14500
H2012       H  0.62381710  0.44636317  0.16853496     0.14500
C2013       C  0.63643130  0.45640116  0.08410678     0.36200
C2014       C  0.55992799  0.49742742  0.18497503     0.36100
N2015       N  0.65238995  0.44746245  0.06592784    -0.44200
N2016       N  0.54469198  0.50613324  0.20580164    -0.44200
C2017       C  0.63870551  0.63780935  0.81426797    -0.00600
C2018       C  0.64335098  0.63366099  0.76750033    -0.12500
C2019       C  0.66049275  0.64713715  0.74353537     0.01700
C2020       C  0.67335728  0.66523387  0.76687361    -0.00700
C2021       C  0.66689601  0.67060431  0.81274335    -0.12400
C2022       C  0.64978329  0.65709375  0.83634519     0.01500
H2023       H  0.63517299  0.61841026  0.75083559     0.14500
H2024       H  0.67567967  0.68497199  0.83094611     0.14500
C2025       C  0.64511342  0.66199102  0.88447577     0.36200
C2026       C  0.66529392  0.64077328  0.69614329     0.36100
N2027       N  0.64124164  0.66568038  0.92305423    -0.44200
N2028       N  0.66893945  0.63555245  0.65815621    -0.44200
C2029       C  0.72476939  0.53387324  0.95004633    -0.00600
C2030       C  0.73967027  0.54522254  0.91758055    -0.12500
C2031       C  0.76408587  0.54650628  0.92384314     0.01700
C2032       C  0.77434285  0.53623562  0.96327906    -0.00700
C2033       C  0.75979434  0.52415318  0.99527580    -0.12400
C2034       C  0.73511182  0.52299724  0.98919571     0.01500
H2035       H  0.73218433  0.55337509  0.88706599     0.14500
H2036       H  0.76761125  0.51638289  0.02581305     0.14500
C2037       C  0.72093355  0.51198042  0.02518654     0.36200
C2038       C  0.77819925  0.55841114  0.88879364     0.36100
N2039       N  0.70986767  0.50322669  0.05458812    -0.44200
N2040       N  0.78912282  0.56793232  0.86011939    -0.44200
C2041       C  0.67754655  0.62181936  0.02768150    -0.00600
C2042       C  0.67313724  0.62443683  0.07550733    -0.12500
C2043       C  0.68459248  0.64187240  0.10199429     0.01700
C2044       C  0.70140334  0.65743630  0.08119621    -0.00700
C2045       C  0.70632212  0.65440521  0.03357237    -0.12400
C2046       C  0.69465590  0.63707097  0.00694686     0.01500
H2047       H  0.66030197  0.61292155  0.09277203     0.14500
H2048       H  0.71917161  0.66593044  0.01638014     0.14500
C2049       C  0.70028663  0.63599035  0.95830358     0.36200
C2050       C  0.67817491  0.64341258  0.15021824     0.36100
N2051       N  0.70484659  0.63524175  0.91932834    -0.44200
N2052       N  0.67290023  0.64456463  0.18881371    -0.44200
C2053       C  0.96680182  0.00565672  0.37189481    -0.00600
C2054       C  0.98295096  0.99474282  0.34118263    -0.12500
C2055       C  0.00703830  0.00207124  0.33876825     0.01700
C2056       C  0.01533960  0.02071953  0.36733871    -0.00700
C2057       C  0.99872528  0.03233986  0.39588009    -0.12400
C2058       C  0.97494485  0.02510713  0.39839326     0.01500
H2059       H  0.97718241  0.97942122  0.32137051     0.14500
H2060       H  0.00455066  0.04689394  0.41762034     0.14500
C2061       C  0.95926969  0.03751455  0.42980507     0.36200
C2062       C  0.02311091  0.98887589  0.30971698     0.36100
N2063       N  0.94656724  0.04725333  0.45492931    -0.44200
N2064       N  0.03584668  0.97807164  0.28639607    -0.44200
C2065       C  0.90763139  0.97626826  0.61716093    -0.00600
C2066       C  0.93139773  0.97884437  0.62936777    -0.12500
C2067       C  0.93755415  0.99589632  0.66190928     0.01700
C2068       C  0.91946392  0.01064805  0.68028386    -0.00700
C2069       C  0.89607662  0.00225848  0.67940177    -0.12400
C2070       C  0.89002276  0.98456905  0.64798773     0.01500
H2071       H  0.94525374  0.97044172  0.60907768     0.14500
H2072       H  0.88214735  0.01166111  0.69770705     0.14500
C2073       C  0.86557926  0.97712702  0.64522198     0.36200
C2074       C  0.96245679  0.00029709  0.66933914     0.36100
N2075       N  0.84596562  0.97110764  0.64397972    -0.44200
N2076       N  0.98248273  0.00370531  0.67442326    -0.44200
C2077       C  0.79961803  0.87365177  0.52400332    -0.00600
C2078       C  0.79113721  0.85383292  0.50023459    -0.12500
C2079       C  0.78099005  0.83430830  0.52384716     0.01700
C2080       C  0.77873715  0.83440154  0.57312665    -0.00700
C2081       C  0.78551700  0.85528664  0.59632535    -0.12400
C2082       C  0.79572338  0.87474802  0.57239292     0.01500
H2083       H  0.79427078  0.85268057  0.46330906     0.14500
H2084       H  0.78329041  0.85631114  0.63344892     0.14500
C2085       C  0.80259641  0.89552403  0.59860035     0.36200
C2086       C  0.77474594  0.81408571  0.49559670     0.36100
N2087       N  0.80797975  0.91212707  0.61982857    -0.44200
N2088       N  0.77005577  0.79833082  0.47156424    -0.44200
C2089       C  0.83712684  0.86197877  0.30705596    -0.00600
C2090       C  0.82448568  0.86911487  0.26809619    -0.12500
C2091       C  0.80948418  0.85306685  0.24570440     0.01700
C2092       C  0.80689120  0.82956044  0.26293293    -0.00700
C2093       C  0.81987631  0.82244051  0.30161775    -0.12400
C2094       C  0.83488822  0.83846337  0.32379963     0.01500
H2095       H  0.82563903  0.88752327  0.25634001     0.14500
H2096       H  0.81806842  0.80437159  0.31493570     0.14500
C2097       C  0.84648716  0.83093188  0.36552815     0.36200
C2098       C  0.79585265  0.86162064  0.20723407     0.36100
N2099       N  0.85564706  0.82497969  0.39913705    -0.44200
N2100       N  0.78489497  0.86853561  0.17650661    -0.44200
C2101       C  0.51429342  0.97568676  0.52698168    -0.00600
C2102       C  0.49655327  0.96018593  0.51064708    -0.12500
C2103       C  0.47282818  0.96768124  0.50592427     0.01700
C2104       C  0.46604970  0.99133157  0.51720560    -0.00700
C2105       C  0.48338131  0.00626284  0.53691361    -0.12400
C2106       C  0.50721514  0.99875290  0.54138397     0.01500
H2107       H  0.50153538  0.94255258  0.49871127     0.14500
H2108       H  0.47881201  0.02454088  0.54527517     0.14500
C2109       C  0.52453605  0.01567769  0.55764887     0.36200
C2110       C  0.45575003  0.95093026  0.48791632     0.36100
N2111       N  0.53844759  0.02925934  0.57066990    -0.44200
N2112       N  0.44194835  0.93752287  0.47382829    -0.44200
C2113       C  0.57983681  0.04225920  0.28631267    -0.00600
C2114       C  0.60305324  0.03344832  0.28856031    -0.12500
C2115       C  0.61339778  0.02792485  0.33055444     0.01700
C2116       C  0.59999988  0.03011571  0.37167925    -0.00700
C2117       C  0.57742386  0.04034056  0.36991568    -0.12400
C2118       C  0.56731904  0.04663410  0.32797638     0.01500
H2119       H  0.61336312  0.03079680  0.25724858     0.14500
H2120       H  0.56718488  0.04251781  0.40148647     0.14500
C2121       C  0.54447028  0.05803070  0.32977543     0.36200
C2122       C  0.63740428  0.01916314  0.32962112     0.36100
N2123       N  0.52629522  0.06736541  0.33251889    -0.44200
N2124       N  0.65667772  0.01228269  0.32851738    -0.44200
C2125       C  0.64040131  0.83264836  0.49859936    -0.00600
C2126       C  0.66086307  0.82405853  0.47636433    -0.12500
C2127       C  0.67566133  0.80748889  0.49797252     0.01700
C2128       C  0.66991669  0.79918192  0.54287516    -0.00700
C2129       C  0.64767729  0.80553715  0.56196601    -0.12400
C2130       C  0.63319585  0.82234338  0.54067840     0.01500
H2131       H  0.66651359  0.83209890  0.44391350     0.14500
H2132       H  0.64220421  0.79885752  0.59558896     0.14500
C2133       C  0.61266746  0.83089272  0.56561052     0.36200
C2134       C  0.69705677  0.80055193  0.47408243     0.36100
N2135       N  0.59637600  0.83767600  0.58611784    -0.44200
N2136       N  0.71409685  0.79497437  0.45454181    -0.44200
C2137       C  0.72433566  0.96104081  0.49560100    -0.00600
C2138       C  0.73387298  0.97781404  0.46410749    -0.12500
C2139       C  0.75838189  0.97990689  0.45710379     0.01700
C2140       C  0.77381360  0.96543890  0.48253445    -0.00700
C2141       C  0.76448580  0.94984337  0.51616949    -0.12400
C2142       C  0.73996620  0.94750252  0.52288997     0.01500
H2143       H  0.72213201  0.98829618  0.44280544     0.14500
H2144       H  0.77636523  0.93849307  0.53547755     0.14500
C2145       C  0.73142282  0.93091355  0.55758345     0.36200
C2146       C  0.76726549  0.99604557  0.42193914     0.36100
N2147       N  0.72483998  0.91766426  0.58572098    -0.44200
N2148       N  0.77437174  0.00901622  0.39379027    -0.44200
C2149       C  0.68049620  0.86552646  0.35360147    -0.00600
C2150       C  0.70272875  0.85646357  0.36531346    -0.12500
C2151       C  0.71289642  0.83729081  0.34072616     0.01700
C2152       C  0.70065918  0.82649154  0.30326239    -0.00700
C2153       C  0.67820233  0.83534923  0.29252548    -0.12400
C2154       C  0.66807609  0.85431777  0.31710044     0.01500
H2155       H  0.71243529  0.86468219  0.39322106     0.14500
H2156       H  0.66821441  0.82723534  0.26488028     0.14500
C2157       C  0.64433570  0.86114074  0.30480034     0.36200
C2158       C  0.73616189  0.82970124  0.35450850     0.36100
N2159       N  0.62528365  0.86628496  0.29461310    -0.44200
N2160       N  0.75478531  0.82377563  0.36602652    -0.44200
C2161       C  0.19851243  0.74986678  0.20328565    -0.00600
C2162       C  0.19538919  0.72715577  0.18388461    -0.12500
C2163       C  0.19439668  0.72445659  0.13588671     0.01700
C2164       C  0.19617207  0.74476572  0.10704155    -0.00700
C2165       C  0.19676548  0.76757894  0.12680259    -0.12400
C2166       C  0.19814740  0.77023680  0.17463692     0.01500
H2167       H  0.19555181  0.71144997  0.20591778     0.14500
H2168       H  0.19818048  0.78324274  0.10475037     0.14500
C2169       C  0.20042123  0.79393474  0.19365524     0.36200
C2170       C  0.19264622  0.70070882  0.11684369     0.36100
N2171       N  0.20217445  0.81284858  0.20928968    -0.44200
N2172       N  0.19108704  0.68167122  0.10166413    -0.44200
C2173       C  0.27664705  0.75236868  0.70299417    -0.00600
C2174       C  0.28000834  0.73071387  0.67951439    -0.12500
C2175       C  0.28031534  0.73003714  0.63107308     0.01700
C2176       C  0.27798243  0.75135109  0.60539588    -0.00700
C2177       C  0.27721144  0.77320634  0.62881912    -0.12400
C2178       C  0.27637251  0.77387478  0.67718948     0.01500
H2179       H  0.28024193  0.71408286  0.69883396     0.14500
H2180       H  0.27530903  0.78965990  0.60933277     0.14500
C2181       C  0.27412333  0.79678368  0.69950549     0.36200
C2182       C  0.28148078  0.70715664  0.60835230     0.36100
N2183       N  0.27234952  0.81516263  0.71733334    -0.44200
N2184       N  0.28242956  0.68882613  0.59010450    -0.44200
C2185       C  0.98212005  0.53178469  0.58491740    -0.00600
C2186       C  0.99432548  0.51208642  0.56594589    -0.12500
C2187       C  0.98502885  0.48843310  0.56850711     0.01700
C2188       C  0.96271893  0.48391322  0.58966705    -0.00700
C2189       C  0.95015702  0.50389285  0.60659955    -0.12400
C2190       C  0.95970368  0.52729669  0.60512671     0.01500
H2191       H  0.01206354  0.51489935  0.55223531     0.14500
H2192       H  0.93329842  0.50097418  0.62402543     0.14500
C2193       C  0.94710992  0.54618199  0.62840199     0.36200
C2194       C  0.99994039  0.46898352  0.55397800     0.36100
N2195       N  0.93726994  0.56135629  0.64747920    -0.44200
N2196       N  0.01221247  0.45354308  0.54269131    -0.44200
C2197       C  0.98163598  0.58771771  0.89132625    -0.00600
C2198       C  0.97892652  0.61058592  0.87247204    -0.12500
C2199       C  0.98648997  0.61543250  0.82765463     0.01700
C2200       C  0.99939421  0.59791596  0.80302215    -0.00700
C2201       C  0.00591169  0.57677496  0.82569918    -0.12400
C2202       C  0.99714260  0.57155758  0.86965124     0.01500
H2203       H  0.96782844  0.62354402  0.88976553     0.14500
H2204       H  0.01721942  0.56388959  0.80860124     0.14500
C2205       C  0.00317625  0.54897147  0.89047754     0.36200
C2206       C  0.97825755  0.63734415  0.80685959     0.36100
N2207       N  0.00834104  0.53080458  0.90652087    -0.44200
N2208       N  0.97115175  0.65479595  0.79071250    -0.44200
C2209       C  0.08752920  0.52259840  0.65968722    -0.00600
C2210       C  0.07140764  0.50530795  0.67615542    -0.12500
C2211       C  0.07351780  0.49568625  0.72035201     0.01700
C2212       C  0.09210819  0.50358652  0.74897034    -0.00700
C2213       C  0.10998419  0.51823966  0.72962558    -0.12400
C2214       C  0.10822992  0.52715066  0.68496422     0.01500
H2215       H  0.05596458  0.50080503  0.65592200     0.14500
H2216       H  0.12531497  0.52326249  0.74966543     0.14500
C2217       C  0.12752596  0.54164198  0.66718385     0.36200
C2218       C  0.05635195  0.47780809  0.73435717     0.36100
N2219       N  0.14328867  0.55284692  0.65298492    -0.44200
N2220       N  0.04245448  0.46327644  0.74383464    -0.44200
C2221       C  0.14224540  0.68762623  0.66785643    -0.00600
C2222       C  0.13688186  0.70987417  0.68760406    -0.12500
C2223       C  0.15227338  0.72063248  0.71955990     0.01700
C2224       C  0.17356781  0.70909550  0.73197582    -0.00700
C2225       C  0.17984871  0.68809434  0.70886870    -0.12400
C2226       C  0.16458601  0.67743892  0.67711075     0.01500
H2227       H  0.11957592  0.71758509  0.68197692     0.14500
H2228       H  0.19633333  0.67932342  0.71726769     0.14500
C2229       C  0.17147402  0.65480543  0.65757294     0.36200
C2230       C  0.14447359  0.74196485  0.74293995     0.36100
N2231       N  0.17736668  0.63665096  0.64251284    -0.44200
N2232       N  0.13812512  0.75896231  0.76189943    -0.44200
C2233       C  0.15387078  0.69160916  0.46799186    -0.00600
C2234       C  0.16204521  0.67143495  0.49169185    -0.12500
C2235       C  0.14691318  0.65225466  0.50156044     0.01700
C2236       C  0.12304855  0.65322849  0.48754597    -0.00700
C2237       C  0.11528144  0.67301135  0.46204393    -0.12400
C2238       C  0.13025499  0.69234227  0.45305557     0.01500
H2239       H  0.18038286  0.67058429  0.50230577     0.14500
H2240       H  0.09702507  0.67393244  0.45098688     0.14500
C2241       C  0.12044575  0.71329048  0.43133287     0.36200
C2242       C  0.15628518  0.63230327  0.52714416     0.36100
N2243       N  0.11245151  0.73011461  0.41435649    -0.44200
N2244       N  0.16378398  0.61621390  0.54734674    -0.44200
C2245       C  0.00367108  0.98166126  0.77387529    -0.00600
C2246       C  0.97977990  0.98806976  0.78043592    -0.12500
C2247       C  0.97289638  0.01244623  0.78359369     0.01700
C2248       C  0.98982113  0.03115187  0.77811570    -0.00700
C2249       C  0.01374505  0.02459190  0.77522421    -0.12400
C2250       C  0.02070564  0.00039299  0.77458539     0.01500
H2251       H  0.96632701  0.97417442  0.78051173     0.14500
H2252       H  0.02710293  0.03849460  0.77153693     0.14500
C2253       C  0.04568406  0.99535252  0.77461704     0.36200
C2254       C  0.94810911  0.01788014  0.78898379     0.36100
N2255       N  0.06581191  0.99184545  0.77614359    -0.44200
N2256       N  0.92825172  0.02227080  0.79381459    -0.44200
C2257       C  0.09069374  0.99445077  0.66979447    -0.00600
C2258       C  0.07187167  0.00906571  0.65662566    -0.12500
C2259       C  0.07325537  0.02191613  0.61553263     0.01700
C2260       C  0.09454367  0.02136081  0.58944321    -0.00700
C2261       C  0.11498433  0.01198887  0.61008261    -0.12400
C2262       C  0.11317112  0.99846790  0.65036240     0.01500
H2263       H  0.05476389  0.00689664  0.67362984     0.14500
H2264       H  0.13203519  0.01323891  0.59267357     0.14500
C2265       C  0.13387126  0.98637351  0.66703312     0.36200
C2266       C  0.05171733  0.03271915  0.59966783     0.36100
N2267       N  0.15068875  0.97698663  0.68024559    -0.44200
N2268       N  0.03388111  0.04095570  0.58891094    -0.44200
C2269       C  0.99173840  0.90149793  0.53972534    -0.00600
C2270       C  0.00115697  0.91765411  0.50701360    -0.12500
C2271       C  0.99171203  0.91915164  0.46269760     0.01700
C2272       C  0.97251517  0.90424425  0.45073033    -0.00700
C2273       C  0.96553933  0.88588070  0.48107391    -0.12400
C2274       C  0.97430988  0.88487533  0.52573881     0.01500
H2275       H  0.01562153  0.92946828  0.51628935     0.14500
H2276       H  0.95113870  0.87393325  0.47200720     0.14500
C2277       C  0.96346115  0.86791442  0.55726277     0.36200
C2278       C  0.00120425  0.93691798  0.43118457     0.36100
N2279       N  0.95440083  0.85437399  0.58212482    -0.44200
N2280       N  0.00897888  0.95129313  0.40644512    -0.44200
C2281       C  0.14430802  0.86894267  0.83177961    -0.00600
C2282       C  0.13628083  0.85635026  0.87072443    -0.12500
C2283       C  0.14833493  0.83623321  0.88628181     0.01700
C2284       C  0.16936035  0.82907458  0.86317303    -0.00700
C2285       C  0.17948480  0.84461477  0.82997608    -0.12400
C2286       C  0.16708589  0.86449311  0.81418138     0.01500
H2287       H  0.11875542  0.86005717  0.88457476     0.14500
H2288       H  0.19630516  0.84032109  0.81375726     0.14500
C2289       C  0.17669613  0.87818437  0.77599103     0.36200
C2290       C  0.13696202  0.82231873  0.92229395     0.36100
N2291       N  0.18452783  0.88916250  0.74550029    -0.44200
N2292       N  0.12711894  0.81176044  0.95111183    -0.44200
C2293       C  0.04743765  0.77829415  0.67961953    -0.00600
C2294       C  0.03860919  0.77053514  0.63687348    -0.12500
C2295       C  0.03727357  0.74611587  0.62568090     0.01700
C2296       C  0.04479895  0.72867956  0.65749278    -0.00700
C2297       C  0.05321638  0.73628299  0.70045829    -0.12400
C2298       C  0.05453860  0.76066375  0.71180716     0.01500
H2299       H  0.03294136  0.78361985  0.61169886     0.14500
H2300       H  0.05886397  0.72304824  0.72540098     0.14500
C2301       C  0.06210484  0.76674006  0.75768715     0.36200
C2302       C  0.02715245  0.73935242  0.58212025     0.36100
N2303       N  0.06791296  0.77108609  0.79488462    -0.44200
N2304       N  0.01882965  0.73388310  0.54740306    -0.44200
C2305       C  0.14575142  0.82450518  0.63061128    -0.00600
C2306       C  0.16513282  0.83788221  0.61347764    -0.12500
C2307       C  0.18183529  0.82791612  0.58322100     0.01700
C2308       C  0.17942944  0.80392062  0.56910596    -0.00700
C2309       C  0.16121994  0.78989425  0.58966168    -0.12400
C2310       C  0.14442447  0.79998765  0.62005853     0.01500
H2311       H  0.16645789  0.85673979  0.62175055     0.14500
H2312       H  0.15927735  0.77128091  0.58006240     0.14500
C2313       C  0.12504586  0.78536660  0.63706980     0.36200
C2314       C  0.20114634  0.84285385  0.56705093     0.36100
N2315       N  0.10952500  0.77367388  0.65083992    -0.44200
N2316       N  0.21666818  0.85483164  0.55428917    -0.44200
C2317       C  0.52023286  0.91482386  0.37318699    -0.00600
C2318       C  0.51572527  0.89025537  0.36889196    -0.12500
C2319       C  0.50477397  0.88115950  0.33001420     0.01700
C2320       C  0.49787472  0.89694799  0.29444476    -0.00700
C2321       C  0.49891434  0.92172202  0.30264113    -0.12400
C2322       C  0.50941041  0.93074928  0.34216449     0.01500
H2323       H  0.52239511  0.87777132  0.39429046     0.14500
H2324       H  0.49197973  0.93428687  0.27771173     0.14500
C2325       C  0.50898331  0.95629194  0.34918576     0.36200
C2326       C  0.50111769  0.85563243  0.32879225     0.36100
N2327       N  0.50816375  0.97674912  0.35461358    -0.44200
N2328       N  0.49844752  0.83512953  0.33005625    -0.44200
C2329       C  0.38634300  0.94623968  0.19753879    -0.00600
C2330       C  0.37192698  0.93603960  0.23229365    -0.12500
C2331       C  0.37137965  0.94566796  0.27662123     0.01700
C2332       C  0.38538381  0.96589493  0.28639489    -0.00700
C2333       C  0.39821007  0.97715250  0.25056644    -0.12400
C2334       C  0.39839710  0.96784611  0.20619433     0.01500
H2335       H  0.36267217  0.91932592  0.22614354     0.14500
H2336       H  0.40819755  0.99336526  0.25718104     0.14500
C2337       C  0.41194126  0.98022397  0.17075225     0.36200
C2338       C  0.35775101  0.93338321  0.31188872     0.36100
N2339       N  0.42278444  0.99014315  0.14242020    -0.44200
N2340       N  0.34680324  0.92329290  0.33982202    -0.44200
C2341       C  0.49102701  0.95502948  0.08063205    -0.00600
C2342       C  0.48280849  0.97151157  0.04748273    -0.12500
C2343       C  0.49081329  0.99573419  0.04667301     0.01700
C2344       C  0.50713976  0.00408649  0.07984074    -0.00700
C2345       C  0.51632651  0.98708681  0.11076885    -0.12400
C2346       C  0.50867550  0.96311368  0.11129072     0.01500
H2347       H  0.46902075  0.96593054  0.02407864     0.14500
H2348       H  0.52930036  0.99273405  0.13587172     0.14500
C2349       C  0.51886518  0.94714526  0.14489517     0.36200
C2350       C  0.48074121  0.01196689  0.01369411     0.36100
N2351       N  0.52706756  0.93433570  0.17168728    -0.44200
N2352       N  0.47262226  0.02493136  0.98710254    -0.44200
C2353       C  0.33536627  0.77307298  0.30648791    -0.00600
C2354       C  0.33431923  0.76879053  0.25840952    -0.12500
C2355       C  0.35360484  0.77347879  0.22866060     0.01700
C2356       C  0.37502992  0.78231877  0.24662170    -0.00700
C2357       C  0.37689654  0.78391053  0.29523622    -0.12400
C2358       C  0.35740414  0.77975519  0.32490635     0.01500
H2359       H  0.31792173  0.76256166  0.24334785     0.14500
H2360       H  0.39325619  0.79022365  0.31030329     0.14500
C2361       C  0.36020154  0.78441919  0.37343677     0.36200
C2362       C  0.35022934  0.77041812  0.17977221     0.36100
N2363       N  0.36258692  0.78836172  0.41226020    -0.44200
N2364       N  0.34743650  0.76794755  0.14060868    -0.44200
C2365       C  0.29929321  0.78753738  0.04884878    -0.00600
C2366       C  0.32062127  0.77822673  0.03213955    -0.12500
C2367       C  0.34180688  0.79066558  0.03723261     0.01700
C2368       C  0.34201309  0.81264974  0.06110497    -0.00700
C2369       C  0.32066480  0.82156418  0.07937294    -0.12400
C2370       C  0.29934408  0.80925917  0.07315937     0.01500
H2371       H  0.32045675  0.76223883  0.01115381     0.14500
H2372       H  0.32062481  0.83804259  0.09894257     0.14500
C2373       C  0.27771240  0.81927445  0.09147497     0.36200
C2374       C  0.36255561  0.78107410  0.01463756     0.36100
N2375       N  0.26034861  0.82721476  0.10617055    -0.44200
N2376       N  0.37884248  0.77311971  0.99582756    -0.44200
C2377       C  0.45630127  0.50423764  0.20837560    -0.00600
C2378       C  0.47300727  0.50096985  0.24388340    -0.12500
C2379       C  0.48442576  0.47862573  0.25104593     0.01700
C2380       C  0.47893496  0.45848643  0.22352159    -0.00700
C2381       C  0.46145873  0.46135345  0.19004296    -0.12400
C2382       C  0.45025314  0.48348187  0.18232469     0.01500
H2383       H  0.47815697  0.51619579  0.26455663     0.14500
H2384       H  0.45740986  0.44637969  0.16773286     0.14500
C2385       C  0.43299622  0.48405153  0.14601178     0.36200
C2386       C  0.50292835  0.47705939  0.28483457     0.36100
N2387       N  0.41936269  0.48411547  0.11652592    -0.44200
N2388       N  0.51786009  0.47553691  0.31168376    -0.44200
C2389       C  0.50718485  0.56176548  0.92147773    -0.00600
C2390       C  0.49481880  0.54241485  0.94194940    -0.12500
C2391       C  0.48223952  0.54583037  0.98297307     0.01700
C2392       C  0.47921506  0.56928677  0.99938124    -0.00700
C2393       C  0.48610400  0.58868725  0.97121189    -0.12400
C2394       C  0.49999051  0.58511388  0.93206808     0.01500
H2395       H  0.49907404  0.52428371  0.93171199     0.14500
H2396       H  0.48182121  0.60682420  0.98112020     0.14500
C2397       C  0.50901758  0.60582135  0.90761585     0.36200
C2398       C  0.47554863  0.52507071  0.01003936     0.36100
N2399       N  0.51608230  0.62260648  0.88838666    -0.44200
N2400       N  0.47049455  0.50847627  0.03206271    -0.44200
C2401       C  0.35553612  0.53662998  0.06463259    -0.00600
C2402       C  0.35225148  0.55201938  0.02667423    -0.12500
C2403       C  0.35836534  0.54455893  0.98212584     0.01700
C2404       C  0.36811868  0.52172960  0.97635097    -0.00700
C2405       C  0.36733829  0.50538385  0.01318895    -0.12400
C2406       C  0.36068743  0.51252981  0.05710113     0.01500
H2407       H  0.34761344  0.57057222  0.03225358     0.14500
H2408       H  0.37293925  0.48719276  0.00800792     0.14500
C2409       C  0.36162716  0.49558061  0.09473634     0.36200
C2410       C  0.35625002  0.56100437  0.94395292     0.36100
N2411       N  0.36232010  0.48211166  0.12506384    -0.44200
N2412       N  0.35448254  0.57409835  0.91321181    -0.44200
C2413       C  0.33323477  0.66446602  0.23504598    -0.00600
C2414       C  0.33951853  0.67989907  0.27086610    -0.12500
C2415       C  0.32401668  0.69726707  0.28646981     0.01700
C2416       C  0.30175354  0.69981138  0.26566559    -0.00700
C2417       C  0.29580257  0.68549275  0.22801852    -0.12400
C2418       C  0.31138682  0.66783328  0.21236743     0.01500
H2419       H  0.35625357  0.67776912  0.28836998     0.14500
H2420       H  0.27842113  0.68708645  0.21281434     0.14500
C2421       C  0.30433174  0.65343725  0.17355780     0.36200
C2422       C  0.33060559  0.71057655  0.32698334     0.36100
N2423       N  0.29866811  0.64187669  0.14250389    -0.44200
N2424       N  0.33629365  0.72064799  0.35985313    -0.44200
C2425       C  0.46669558  0.70500838  0.15902541    -0.00600
C2426       C  0.47203396  0.71680876  0.11738858    -0.12500
C2427       C  0.47433639  0.74182313  0.11587582     0.01700
C2428       C  0.47126140  0.75546937  0.15644168    -0.00700
C2429       C  0.46897309  0.74345878  0.19878558    -0.12400
C2430       C  0.46678613  0.71842361  0.20036744     0.01500
H2431       H  0.47239728  0.70677522  0.08546520     0.14500
H2432       H  0.46675376  0.75369597  0.23020328     0.14500
C2433       C  0.46330204  0.70690759  0.24460097     0.36200
C2434       C  0.47859707  0.75330237  0.07186907     0.36100
N2435       N  0.46054944  0.69745670  0.27983527    -0.44200
N2436       N  0.48226599  0.76247194  0.03665496    -0.44200
C2437       C  0.32855103  0.71064808  0.99439153    -0.00600
C2438       C  0.32801620  0.71390649  0.04278678    -0.12500
C2439       C  0.34636403  0.70601779  0.07134923     0.01700
C2440       C  0.36615642  0.69434101  0.05200810    -0.00700
C2441       C  0.36775466  0.69323124  0.00316327    -0.12400
C2442       C  0.34934146  0.70120485  0.97455964     0.01500
H2443       H  0.31264991  0.72200863  0.05892690     0.14500
H2444       H  0.38294726  0.68487486  0.98694305     0.14500
C2445       C  0.35170737  0.69812539  0.92534036     0.36200
C2446       C  0.34369580  0.70921432  0.12047893     0.36100
N2447       N  0.35357385  0.69575493  0.88584006    -0.44200
N2448       N  0.34153210  0.71182527  0.15985857    -0.44200
loop_ 
_geom_bond_atom_site_label_1 
_geom_bond_atom_site_label_2 
_geom_bond_distance 
_geom_bond_site_symmetry_2 
_ccdc_geom_bond_type 
Zr1           O2   2.441       .  S
Zr1           O3   2.438       .  S
Zr1           O4   2.412       .  S
Zr1           O7   2.442       .  S
Zr1           O9   2.390       .  S
Zr1          O10   2.381       .  S
Zr1          O11   2.423       .  S
Zr1          O12   2.390       .  S
O2           H58   0.989       .  S
O2           H66   0.990       .  S
O3           C23   1.284       .  A
O4           C25   1.280       .  A
O5          Zr15   2.403       .  S
O5           C24   1.273       .  A
O6          Zr14   2.421       .  S
O6           C25   1.284       .  A
O7           C24   1.278       .  A
O8          Zr16   2.518       .  S
O8           C23   1.299       .  A
O9          Zr14   2.411       .  S
O9          Zr16   2.371       .  S
O10         Zr15   2.411       .  S
O10         Zr16   2.367       .  S
O10          H45   0.966       .  S
O11         Zr14   2.413       .  S
O11         Zr31   2.356       .  S
O11          H48   0.963       .  S
O12         Zr15   2.402       .  S
O12         Zr31   2.373       .  S
Zr13         O38   2.440       .  S
Zr13         O32   2.500       .  S
Zr13         O40   2.401       .  S
Zr13         O28   2.402       .  S
Zr13         O19   2.423       .  S
Zr13         O20   2.430       .  S
Zr13         O21   2.371       .  S
Zr13         O22   2.386       .  S
Zr14         O33   2.440       .  S
Zr14         O26   2.433       .  S
Zr14         O27   2.471       .  S
Zr14         O20   2.385       .  S
Zr14         O21   2.381       .  S
Zr15         O17   2.440       .  S
Zr15         O39   2.436       .  S
Zr15         O41   2.416       .  S
Zr15         O19   2.392       .  S
Zr15         O22   2.415       .  S
Zr16         O42   2.435       .  S
Zr16         O43   2.435       .  S
Zr16         O18   2.437       .  S
Zr16         O19   2.439       .  S
Zr16         O20   2.436       .  S
O17          H54   0.990       .  S
O18          H49   0.990       .  S
O18          H63   0.990       .  S
O20          H46   0.966       .  S
O21         Zr31   2.373       .  S
O22         Zr31   2.380       .  S
O22          H47   0.965       .  S
C23        C2377   1.536       .  S
C24        C2401   1.457       .  S
C25        C2392   1.463   1_554  S
O26          H62   0.990       .  S
O27          C29   1.290       .  A
O28          C29   1.278       .  A
C29        C2425   1.489       .  S
O30         Zr31   2.435   1_556  S
O30          H59   0.990       .  S
Zr31         O34   2.431   1_554  S
Zr31         O35   2.442       .  S
Zr31         O36   2.389       .  S
O32          C37   1.291       .  A
O33          H50   0.990       .  S
O33          H65   0.990       .  S
O34          H51   0.990       .  S
O35          H55   0.989       .  S
O35          H64   0.990       .  S
O36          C37   1.266       .  A
C37        C2440   1.510       .  S
O38          H57   0.990       .  S
O38          H61   0.990       .  S
O39          H53   0.990       .  S
O39          H60   0.990       .  S
O40          C44   1.274       .  A
O41          C44   1.275       .  A
O42          H52   0.990       .  S
O43          H56   0.990       .  S
C44        C2413   1.473       .  S
Zr67         O68   2.440       .  S
Zr67         O69   2.398       .  S
Zr67         O70   2.409       .  S
Zr67         O73   2.413       .  S
Zr67         O75   2.380       .  S
Zr67         O76   2.390       .  S
Zr67         O77   2.402       .  S
Zr67         O78   2.389       .  S
O68         H124   0.990       .  S
O68         H132   0.990       .  S
O69          C89   1.278       .  A
O70          C91   1.282       .  A
O71         Zr81   2.421       .  S
O71          C90   1.279       .  A
O72         Zr80   2.440       .  S
O72          C91   1.286       .  A
O73          C90   1.272       .  A
O74         Zr82   2.531       .  S
O74          C89   1.301       .  A
O75         Zr80   2.399       .  S
O75         Zr82   2.369       .  S
O76         Zr81   2.401       .  S
O76         Zr82   2.351       .  S
O76         H111   0.966       .  S
O77         Zr80   2.424       .  S
O77         Zr97   2.347       .  S
O77         H114   0.963       .  S
O78         Zr81   2.402       .  S
O78         Zr97   2.372       .  S
Zr79        O104   2.438       .  S
Zr79         O98   2.498       .  S
Zr79        O106   2.395       .  S
Zr79         O94   2.399       .  S
Zr79         O85   2.426       .  S
Zr79         O86   2.431       .  S
Zr79         O87   2.373       .  S
Zr79         O88   2.379       .  S
Zr80         O99   2.438       .  S
Zr80         O92   2.432       .  S
Zr80         O93   2.480       .  S
Zr80         O86   2.389       .  S
Zr80         O87   2.388       .  S
Zr81         O83   2.439       .  S
Zr81        O105   2.436       .  S
Zr81        O107   2.440       .  S
Zr81         O85   2.385       .  S
Zr81         O88   2.397       .  S
Zr82        O108   2.435   1_554  S
Zr82        O109   2.436   1_554  S
Zr82         O84   2.437       .  S
Zr82         O85   2.442       .  S
Zr82         O86   2.440       .  S
O83         H120   0.990       .  S
O84         H115   0.990       .  S
O84         H129   0.990       .  S
O86         H112   0.966       .  S
O87         Zr97   2.387       .  S
O88         Zr97   2.373       .  S
O88         H113   0.964       .  S
C89        C2341   1.513       .  S
C90        C2329   1.465       .  S
C91        C2320   1.475       .  S
O92         H128   0.990       .  S
O93          C95   1.290       .  A
O94          C95   1.277       .  A
C95        C2428   1.485       .  S
O96         Zr97   2.436       .  S
O96         H125   0.990       .  S
Zr97        O100   2.436       .  S
Zr97        O101   2.443       .  S
Zr97        O102   2.385       .  S
O98         C103   1.291       .  A
O99         H116   0.990       .  S
O99         H131   0.989       .  S
O100        H117   0.990       .  S
O101        H121   0.989       .  S
O101        H130   0.990       .  S
O102        C103   1.266       .  A
C103       C2356   1.505       .  S
O104        H123   0.990       .  S
O104        H127   0.991       .  S
O105        H119   0.990       .  S
O105        H126   0.990       .  S
O106        C110   1.278       .  A
O107        C110   1.285       .  A
O108        H118   0.990       .  S
O109        H122   0.990       .  S
C110       C2368   1.473       .  S
Zr133       O134   2.445       .  S
Zr133       O135   2.458       .  S
Zr133       O136   2.460       .  S
Zr133       O139   2.392       .  S
Zr133       O141   2.378       .  S
Zr133       O142   2.380       .  S
Zr133       O143   2.411       .  S
Zr133       O144   2.408       .  S
O134        H190   0.990       .  S
O134        H198   0.990       .  S
O135        C155   1.287       .  A
O136        C157   1.289       .  A
O137       Zr147   2.416       .  S
O137        C156   1.280       .  A
O138       Zr146   2.403       .  S
O138        C157   1.277       .  A
O139        C156   1.281       .  A
O140       Zr148   2.511       .  S
O140        C155   1.297       .  A
O141       Zr146   2.412       .  S
O141       Zr148   2.382       .  S
O142       Zr147   2.376       .  S
O142       Zr148   2.360       .  S
O142        H177   0.963       .  S
O143       Zr146   2.413       .  S
O143       Zr163   2.362       .  S
O143        H180   0.963       .  S
O144       Zr147   2.401       .  S
O144       Zr163   2.375       .  S
Zr145       O170   2.437       .  S
Zr145       O164   2.489       .  S
Zr145       O172   2.392       .  S
Zr145       O160   2.434       .  S
Zr145       O151   2.425       .  S
Zr145       O152   2.422       .  S
Zr145       O153   2.361       .  S
Zr145       O154   2.376       .  S
Zr146       O165   2.441       .  S
Zr146       O158   2.434   1_455  S
Zr146       O159   2.455       .  S
Zr146       O152   2.380       .  S
Zr146       O153   2.384       .  S
Zr147       O149   2.431       .  S
Zr147       O171   2.438       .  S
Zr147       O173   2.431       .  S
Zr147       O151   2.393       .  S
Zr147       O154   2.379       .  S
Zr148       O174   2.436       .  S
Zr148       O175   2.437       .  S
Zr148       O150   2.440   1_455  S
Zr148       O151   2.428       .  S
Zr148       O152   2.449       .  S
O149        H186   0.990       .  S
O150        H181   0.990       .  S
O150        H195   0.990       .  S
O152        H178   0.966       .  S
O153       Zr163   2.382       .  S
O154       Zr163   2.370       .  S
O154        H179   0.966       .  S
C155       C2245   1.517       .  S
C156       C2257   1.457       .  S
C157       C2269   1.475   1_455  S
O158        H194   0.990       .  S
O159        C161   1.287       .  A
O160        C161   1.284       .  A
C161       C2293   1.502       .  S
O162       Zr163   2.436       .  S
O162        H191   0.990       .  S
Zr163       O166   2.437       .  S
Zr163       O167   2.439       .  S
Zr163       O168   2.385       .  S
O164        C169   1.294       .  A
O165        H182   0.989   1_455  S
O165        H197   0.990       .  S
O166        H183   0.990       .  S
O167        H187   0.990       .  S
O167        H196   0.990       .  S
O168        C169   1.275       .  A
C169       C2305   1.486       .  S
O170        H189   0.991       .  S
O170        H193   0.990       .  S
O171        H185   0.990       .  S
O171        H192   0.990       .  S
O172        C176   1.278       .  A
O173        C176   1.281       .  A
O174        H184   0.990       .  S
O175        H188   0.990       .  S
C176       C2281   1.457       .  S
Zr199       O200   2.439       .  S
Zr199       O201   2.415       .  S
Zr199       O202   2.429       .  S
Zr199       O205   2.417       .  S
Zr199       O207   2.381       .  S
Zr199       O208   2.388       .  S
Zr199       O209   2.401       .  S
Zr199       O210   2.400       .  S
O200        H256   0.990       .  S
O200        H264   0.990       .  S
O201        C221   1.281   1_455  A
O202        C223   1.286       .  A
O203       Zr213   2.431       .  S
O203        C222   1.281       .  A
O204       Zr212   2.391       .  S
O204        C223   1.276       .  A
O205        C222   1.273       .  A
O206       Zr214   2.528   1_655  S
O206        C221   1.301       .  A
O207       Zr212   2.407       .  S
O207       Zr214   2.370       .  S
O208       Zr213   2.387       .  S
O208       Zr214   2.359       .  S
O208        H243   0.965       .  S
O209       Zr212   2.402       .  S
O209       Zr229   2.364       .  S
O209        H246   0.965       .  S
O210       Zr213   2.399       .  S
O210       Zr229   2.365       .  S
Zr211       O236   2.440       .  S
Zr211       O230   2.500       .  S
Zr211       O238   2.402       .  S
Zr211       O226   2.441       .  S
Zr211       O217   2.432       .  S
Zr211       O218   2.426       .  S
Zr211       O219   2.359       .  S
Zr211       O220   2.395       .  S
Zr212       O231   2.440       .  S
Zr212       O224   2.435   1_455  S
Zr212       O225   2.442       .  S
Zr212       O218   2.383       .  S
Zr212       O219   2.373       .  S
Zr213       O215   2.439       .  S
Zr213       O237   2.438       .  S
Zr213       O239   2.413       .  S
Zr213       O217   2.404       .  S
Zr213       O220   2.422       .  S
Zr214       O240   2.436       .  S
Zr214       O241   2.436       .  S
Zr214       O216   2.438   1_455  S
Zr214       O217   2.426       .  S
Zr214       O218   2.455       .  S
O215        H252   0.990       .  S
O216        H247   0.990       .  S
O216        H261   0.990       .  S
O218        H244   0.966       .  S
O219       Zr229   2.374       .  S
O220       Zr229   2.379       .  S
O220        H245   0.966       .  S
C221       C2185   1.509       .  S
C222       C2209   1.470       .  S
C223       C2200   1.468   1_455  S
O224        H260   0.990       .  S
O225        C227   1.283       .  A
O226        C227   1.282       .  A
C227       C2296   1.492       .  S
O228       Zr229   2.436       .  S
O228        H257   0.990       .  S
Zr229       O232   2.436       .  S
Zr229       O233   2.434       .  S
Zr229       O234   2.376       .  S
O230        C235   1.295       .  A
O231        H248   0.988       .  S
O231        H263   0.990       .  S
O232        H249   0.990       .  S
O233        H253   0.990       .  S
O233        H262   0.990       .  S
O234        C235   1.273       .  A
C235       C2221   1.486       .  S
O236        H255   0.990       .  S
O236        H259   0.990       .  S
O237        H251   0.990       .  S
O237        H258   0.990       .  S
O238        C242   1.269       .  A
O239        C242   1.273       .  A
O240        H250   0.990       .  S
O241        H254   0.990       .  S
C242       C2236   1.471       .  S
Zr265       O266   2.442       .  S
Zr265       O267   2.437       .  S
Zr265       O268   2.437       .  S
Zr265       O271   2.459       .  S
Zr265       O273   2.387       .  S
Zr265       O274   2.392       .  S
Zr265       O275   2.416       .  S
Zr265       O276   2.370       .  S
O266        H322   0.990       .  S
O266        H330   0.990       .  S
O267        C287   1.282       .  A
O268        C289   1.284       .  A
O269       Zr279   2.434       .  S
O269        C288   1.284       .  A
O270       Zr278   2.454       .  S
O270        C289   1.287       .  A
O271        C288   1.292       .  A
O272       Zr280   2.450       .  S
O272        C287   1.287       .  A
O273       Zr278   2.411       .  S
O273       Zr280   2.375       .  S
O274       Zr279   2.400       .  S
O274       Zr280   2.385       .  S
O274        H309   0.965       .  S
O275       Zr278   2.419       .  S
O275       Zr295   2.403       .  S
O275        H312   0.966       .  S
O276       Zr279   2.384       .  S
O276       Zr295   2.348       .  S
Zr277       O302   2.438   1_556  S
Zr277       O296   2.434   1_556  S
Zr277       O304   2.406   1_556  S
Zr277       O292   2.393       .  S
Zr277       O283   2.399       .  S
Zr277       O284   2.405       .  S
Zr277       O285   2.372       .  S
Zr277       O286   2.377       .  S
Zr278       O297   2.439       .  S
Zr278       O290   2.436       .  S
Zr278       O291   2.507       .  S
Zr278       O284   2.399       .  S
Zr278       O285   2.370       .  S
Zr279       O281   2.435       .  S
Zr279       O303   2.438       .  S
Zr279       O305   2.453   1_556  S
Zr279       O283   2.383       .  S
Zr279       O286   2.384       .  S
Zr280       O306   2.437       .  S
Zr280       O307   2.435       .  S
Zr280       O282   2.435       .  S
Zr280       O283   2.409       .  S
Zr280       O284   2.416       .  S
O281        H318   0.990       .  S
O282        H313   0.990       .  S
O282        H327   0.990       .  S
O284        H310   0.966       .  S
O285       Zr295   2.363       .  S
O286       Zr295   2.388       .  S
O286        H311   0.965   1_556  S
C287       C2224   1.492       .  S
C288       C2284   1.484       .  S
C289       C2173   1.487       .  S
O290        H326   0.990       .  S
O291        C293   1.299       .  A
O292        C293   1.279       .  A
C293       C2437   1.507       .  S
O294       Zr295   2.435       .  S
O294        H323   0.990       .  S
Zr295       O298   2.436       .  S
Zr295       O299   2.439       .  S
Zr295       O300   2.391   1_556  S
O296        C301   1.283       .  A
O297        H314   0.990       .  S
O297        H329   0.990       .  S
O298        H315   0.990       .  S
O299        H319   0.990       .  S
O299        H328   0.990       .  S
O300        C301   1.271       .  A
C301       C2365   1.459       .  S
O302        H321   0.990       .  S
O302        H325   0.990       .  S
O303        H317   0.990       .  S
O303        H324   0.990       .  S
O304        C308   1.280       .  A
O305        C308   1.286       .  A
O306        H316   0.990       .  S
O307        H320   0.990       .  S
C308       C2164   1.470       .  S
Zr331       O332   2.441       .  S
Zr331       O333   2.417       .  S
Zr331       O334   2.425       .  S
Zr331       O337   2.423       .  S
Zr331       O339   2.381       .  S
Zr331       O340   2.391       .  S
Zr331       O341   2.404       .  S
Zr331       O342   2.380       .  S
O332        H388   0.990       .  S
O332        H396   0.990       .  S
O333        C353   1.279       .  A
O334        C355   1.282       .  A
O335       Zr345   2.413       .  S
O335        C354   1.281       .  A
O336       Zr344   2.455       .  S
O336        C355   1.288       .  A
O337        C354   1.283       .  A
O338       Zr346   2.470       .  S
O338        C353   1.291       .  A
O339       Zr344   2.409       .  S
O339       Zr346   2.367       .  S
O340       Zr345   2.394       .  S
O340       Zr346   2.380       .  S
O340        H375   0.966       .  S
O341       Zr344   2.422       .  S
O341       Zr361   2.394       .  S
O341        H378   0.966       .  S
O342       Zr345   2.390       .  S
O342       Zr361   2.354       .  S
Zr343       O368   2.437       .  S
Zr343       O362   2.446       .  S
Zr343       O370   2.418       .  S
Zr343       O358   2.380       .  S
Zr343       O349   2.400       .  S
Zr343       O350   2.408       .  S
Zr343       O351   2.371       .  S
Zr343       O352   2.374       .  S
Zr344       O363   2.436       .  S
Zr344       O356   2.436       .  S
Zr344       O357   2.508       .  S
Zr344       O350   2.396       .  S
Zr344       O351   2.371       .  S
Zr345       O347   2.437       .  S
Zr345       O369   2.436       .  S
Zr345       O371   2.443       .  S
Zr345       O349   2.380       .  S
Zr345       O352   2.389       .  S
Zr346       O372   2.436       .  S
Zr346       O373   2.436       .  S
Zr346       O348   2.438       .  S
Zr346       O349   2.420       .  S
Zr346       O350   2.418       .  S
O347        H384   0.990       .  S
O348        H379   0.990       .  S
O348        H393   0.990       .  S
O350        H376   0.966       .  S
O351       Zr361   2.368       .  S
O352       Zr361   2.382       .  S
O352        H377   0.965       .  S
C353       C2308   1.498       .  S
C354       C2233   1.464       .  S
C355       C2176   1.479       .  S
O356        H392   0.990       .  S
O357        C359   1.299       .  A
O358        C359   1.276       .  A
C359       C2353   1.506       .  S
O360       Zr361   2.435       .  S
O360        H389   0.990       .  S
Zr361       O364   2.435       .  S
Zr361       O365   2.440       .  S
Zr361       O366   2.382       .  S
O362        C367   1.285       .  A
O363        H380   0.990       .  S
O363        H395   0.990       .  S
O364        H381   0.990       .  S
O365        H385   0.990       .  S
O365        H394   0.990       .  S
O366        C367   1.275       .  A
C367       C2416   1.456       .  S
O368        H387   0.990       .  S
O368        H391   0.990       .  S
O369        H383   0.990       .  S
O369        H390   0.990       .  S
O370        C374   1.282       .  A
O371        C374   1.283       .  A
O372        H382   0.990       .  S
O373        H386   0.990       .  S
C374       C2161   1.471       .  S
Zr397       O398   2.438       .  S
Zr397       O399   2.406       .  S
Zr397       O400   2.397       .  S
Zr397       O403   2.406   1_565  S
Zr397       O405   2.376       .  S
Zr397       O406   2.386       .  S
Zr397       O407   2.403       .  S
Zr397       O408   2.393       .  S
O398        H454   0.989       .  S
O398        H462   0.990       .  S
O399        C419   1.279       .  A
O400        C421   1.279       .  A
O401       Zr411   2.430   1_545  S
O401        C420   1.281       .  A
O402       Zr410   2.411       .  S
O402        C421   1.283       .  A
O403        C420   1.272       .  A
O404       Zr412   2.532       .  S
O404        C419   1.302       .  A
O405       Zr410   2.385       .  S
O405       Zr412   2.346       .  S
O406       Zr411   2.408       .  S
O406       Zr412   2.360       .  S
O406        H441   0.966       .  S
O407       Zr410   2.410       .  S
O407       Zr427   2.390       .  S
O407        H444   0.966       .  S
O408       Zr411   2.397       .  S
O408       Zr427   2.372       .  S
Zr409       O434   2.438       .  S
Zr409       O428   2.505       .  S
Zr409       O436   2.432       .  S
Zr409       O424   2.378       .  S
Zr409       O415   2.423       .  S
Zr409       O416   2.429       .  S
Zr409       O417   2.358       .  S
Zr409       O418   2.375       .  S
Zr410       O429   2.436       .  S
Zr410       O422   2.435       .  S
Zr410       O423   2.465       .  S
Zr410       O416   2.389       .  S
Zr410       O417   2.367       .  S
Zr411       O413   2.439   1_565  S
Zr411       O435   2.438   1_565  S
Zr411       O437   2.449       .  S
Zr411       O415   2.391       .  S
Zr411       O418   2.405       .  S
Zr412       O438   2.436       .  S
Zr412       O439   2.434       .  S
Zr412       O414   2.435       .  S
Zr412       O415   2.446       .  S
Zr412       O416   2.424       .  S
O413        H450   0.989       .  S
O414        H445   0.990       .  S
O414        H459   0.989       .  S
O416        H442   0.966       .  S
O417       Zr427   2.369       .  S
O418       Zr427   2.375       .  S
O418        H443   0.964       .  S
C419       C2101   1.510       .  S
C420       C2116   1.470       .  S
C421       C2317   1.472       .  S
O422        H458   0.990       .  S
O423        C425   1.289       .  A
O424        C425   1.274       .  A
C425       C2125   1.467       .  S
O426       Zr427   2.435       .  S
O426        H455   0.990       .  S
Zr427       O430   2.435       .  S
Zr427       O431   2.442       .  S
Zr427       O432   2.405       .  S
O428        C433   1.297       .  A
O429        H446   0.990       .  S
O429        H461   0.990       .  S
O430        H447   0.991       .  S
O431        H451   0.990       .  S
O431        H460   0.990       .  S
O432        C433   1.279       .  A
C433       C2149   1.501       .  S
O434        H453   0.990       .  S
O434        H457   0.991       .  S
O435        H449   0.990       .  S
O435        H456   0.990       .  S
O436        C440   1.285       .  A
O437        C440   1.287       .  A
O438        H448   0.990       .  S
O439        H452   0.990       .  S
C440       C2137   1.485       .  S
Zr463       O464   2.430       .  S
Zr463       O465   2.397       .  S
Zr463       O466   2.427       .  S
Zr463       O469   2.438       .  S
Zr463       O471   2.379       .  S
Zr463       O472   2.392       .  S
Zr463       O473   2.416       .  S
Zr463       O474   2.343       .  S
O464        H520   0.989       .  S
O464        H528   0.989       .  S
O465        C485   1.276       .  A
O466        C487   1.270       .  A
O467       Zr477   2.444       .  S
O467        C486   1.288       .  A
O468       Zr476   2.433       .  S
O468        C487   1.279       .  A
O469        C486   1.288       .  A
O470       Zr478   2.499       .  S
O470        C485   1.293       .  A
O471       Zr476   2.402       .  S
O471       Zr478   2.364       .  S
O472       Zr477   2.404       .  S
O472       Zr478   2.384       .  S
O472        H507   0.966   1_565  S
O473       Zr476   2.419       .  S
O473       Zr493   2.384       .  S
O473        H510   0.963       .  S
O474       Zr477   2.352       .  S
O474       Zr493   2.339       .  S
Zr475       O500   2.441       .  S
Zr475       O494   2.500       .  S
Zr475       O502   2.401       .  S
Zr475       O490   2.389       .  S
Zr475       O481   2.416       .  S
Zr475       O482   2.425       .  S
Zr475       O483   2.377       .  S
Zr475       O484   2.365       .  S
Zr476       O495   2.437       .  S
Zr476       O488   2.435       .  S
Zr476       O489   2.442       .  S
Zr476       O482   2.402       .  S
Zr476       O483   2.394       .  S
Zr477       O479   2.437   1_565  S
Zr477       O501   2.438   1_565  S
Zr477       O503   2.464       .  S
Zr477       O481   2.380       .  S
Zr477       O484   2.387       .  S
Zr478       O504   2.436   1_565  S
Zr478       O505   2.435       .  S
Zr478       O480   2.436       .  S
Zr478       O481   2.437       .  S
Zr478       O482   2.424       .  S
O479        H516   0.990   1_545  S
O480        H511   0.990       .  S
O480        H525   0.989       .  S
O482        H508   0.966       .  S
O483       Zr493   2.368       .  S
O484       Zr493   2.391       .  S
O484        H509   0.964       .  S
C485       C2053   1.499   1_565  S
C486       C2065   1.469       .  S
C487       C2272   1.473       .  S
O488        H524   0.990       .  S
O489        C491   1.286       .  A
O490        C491   1.277       .  A
C491       C2089   1.457       .  S
O492       Zr493   2.436       .  S
O492        H521   0.990       .  S
Zr493       O496   2.437       .  S
Zr493       O497   2.433       .  S
Zr493       O498   2.377       .  S
O494        C499   1.298       .  A
O495        H512   0.990       .  S
O495        H527   0.990       .  S
O496        H513   0.990       .  S
O497        H517   0.990       .  S
O497        H526   0.989       .  S
O498        C499   1.273       .  A
C499       C2077   1.487       .  S
O500        H519   0.990       .  S
O500        H523   0.990       .  S
O501        H515   0.990       .  S
O501        H522   0.990       .  S
O502        C506   1.278       .  A
O503        C506   1.287       .  A
O504        H514   0.990       .  S
O505        H518   0.990       .  S
C506       C2140   1.471       .  S
Zr529       O530   2.440       .  S
Zr529       O531   2.441       .  S
Zr529       O532   2.378       .  S
Zr529       O535   2.467   1_556  S
Zr529       O537   2.377       .  S
Zr529       O538   2.381       .  S
Zr529       O539   2.423       .  S
Zr529       O540   2.359       .  S
O530        H586   0.990       .  S
O530        H594   0.991   1_556  S
O531        C551   1.283       .  A
O532        C553   1.277       .  A
O533       Zr543   2.423   1_554  S
O533        C552   1.282       .  A
O534       Zr542   2.425       .  S
O534        C553   1.282       .  A
O535        C552   1.292       .  A
O536       Zr544   2.500       .  S
O536        C551   1.294       .  A
O537       Zr542   2.384       .  S
O537       Zr544   2.348       .  S
O538       Zr543   2.412       .  S
O538       Zr544   2.393       .  S
O538        H573   0.966       .  S
O539       Zr542   2.408       .  S
O539       Zr559   2.391   1_556  S
O539        H576   0.966       .  S
O540       Zr543   2.370       .  S
O540       Zr559   2.357   1_556  S
Zr541       O566   2.443       .  S
Zr541       O560   2.478       .  S
Zr541       O568   2.416       .  S
Zr541       O556   2.389       .  S
Zr541       O547   2.414       .  S
Zr541       O548   2.420       .  S
Zr541       O549   2.375       .  S
Zr541       O550   2.361       .  S
Zr542       O561   2.436       .  S
Zr542       O554   2.435       .  S
Zr542       O555   2.446       .  S
Zr542       O548   2.395       .  S
Zr542       O549   2.390       .  S
Zr543       O545   2.434   1_556  S
Zr543       O567   2.438       .  S
Zr543       O569   2.449       .  S
Zr543       O547   2.379       .  S
Zr543       O550   2.397       .  S
Zr544       O570   2.435       .  S
Zr544       O571   2.436       .  S
Zr544       O546   2.437       .  S
Zr544       O547   2.440       .  S
Zr544       O548   2.413       .  S
O545        H582   0.990   1_554  S
O546        H577   0.990       .  S
O546        H591   0.990       .  S
O548        H574   0.966       .  S
O549       Zr559   2.370   1_556  S
O550       Zr559   2.388   1_556  S
O550        H575   0.966       .  S
C551       C1993   1.520       .  S
C552       C2005   1.480       .  S
C553       C2389   1.468       .  S
O554        H590   0.990       .  S
O555        C557   1.286       .  A
O556        C557   1.277       .  A
C557       C2017   1.459       .  S
O558       Zr559   2.435       .  S
O558        H587   0.990       .  S
Zr559       O562   2.435       .  S
Zr559       O563   2.437       .  S
Zr559       O564   2.396       .  S
O560        C565   1.292   1_556  A
O561        H578   0.990       .  S
O561        H593   0.990       .  S
O562        H579   0.990       .  S
O563        H583   0.990       .  S
O563        H592   0.990       .  S
O564        C565   1.278       .  A
C565       C2041   1.506       .  S
O566        H585   0.990       .  S
O566        H589   0.990       .  S
O567        H581   0.990       .  S
O567        H588   0.990       .  S
O568        C572   1.282       .  A
O569        C572   1.284       .  A
O570        H580   0.990       .  S
O571        H584   0.990       .  S
C572       C2029   1.489       .  S
Zr595       O596   2.440       .  S
Zr595       O597   2.417       .  S
Zr595       O598   2.410       .  S
Zr595       O601   2.444       .  S
Zr595       O603   2.383       .  S
Zr595       O604   2.385       .  S
Zr595       O605   2.417       .  S
Zr595       O606   2.361       .  S
O596        H652   0.989       .  S
O596        H660   0.990       .  S
O597        C617   1.276   1_556  A
O598        C619   1.282       .  A
O599       Zr609   2.420       .  S
O599        C618   1.278       .  A
O600       Zr608   2.416       .  S
O600        C619   1.283       .  A
O601        C618   1.289       .  A
O602       Zr610   2.531       .  S
O602        C617   1.299       .  A
O603       Zr608   2.401       .  S
O603       Zr610   2.349   1_556  S
O604       Zr609   2.412       .  S
O604       Zr610   2.381   1_556  S
O604        H639   0.966       .  S
O605       Zr608   2.411       .  S
O605       Zr625   2.382       .  S
O605        H642   0.965       .  S
O606       Zr609   2.385       .  S
O606       Zr625   2.358       .  S
Zr607       O632   2.438   1_556  S
Zr607       O626   2.497       .  S
Zr607       O634   2.423       .  S
Zr607       O622   2.371   1_556  S
Zr607       O613   2.424   1_556  S
Zr607       O614   2.432   1_556  S
Zr607       O615   2.362       .  S
Zr607       O616   2.369       .  S
Zr608       O627   2.436       .  S
Zr608       O620   2.434   1_556  S
Zr608       O621   2.467       .  S
Zr608       O614   2.389   1_556  S
Zr608       O615   2.371       .  S
Zr609       O611   2.439       .  S
Zr609       O633   2.436   1_556  S
Zr609       O635   2.459       .  S
Zr609       O613   2.377   1_556  S
Zr609       O616   2.406       .  S
Zr610       O636   2.437       .  S
Zr610       O637   2.435       .  S
Zr610       O612   2.436       .  S
Zr610       O613   2.454       .  S
Zr610       O614   2.434       .  S
O611        H648   0.990       .  S
O612        H643   0.990       .  S
O612        H657   0.989       .  S
O614        H640   0.966       .  S
O615       Zr625   2.357       .  S
O616       Zr625   2.383       .  S
O616        H641   0.964       .  S
C617       C1945   1.519       .  S
C618       C1957   1.465       .  S
C619       C2197   1.463       .  S
O620        H656   0.990       .  S
O621        C623   1.290       .  A
O622        C623   1.275   1_554  A
C623       C1981   1.469   1_556  S
O624       Zr625   2.437       .  S
O624        H653   0.990       .  S
Zr625       O628   2.438       .  S
Zr625       O629   2.438       .  S
Zr625       O630   2.404       .  S
O626        C631   1.295       .  A
O627        H644   0.990       .  S
O627        H659   0.989       .  S
O628        H645   0.990       .  S
O629        H649   0.989       .  S
O629        H658   0.990       .  S
O630        C631   1.280       .  A
C631       C1969   1.505       .  S
O632        H651   0.990       .  S
O632        H655   0.990       .  S
O633        H647   0.990       .  S
O633        H654   0.990       .  S
O634        C638   1.282       .  A
O635        C638   1.286       .  A
O636        H646   0.990       .  S
O637        H650   0.990       .  S
C638       C2032   1.476       .  S
Zr661       O662   2.438       .  S
Zr661       O663   2.459       .  S
Zr661       O664   2.389       .  S
Zr661       O667   2.382       .  S
Zr661       O669   2.361       .  S
Zr661       O670   2.378       .  S
Zr661       O671   2.404       .  S
Zr661       O672   2.410       .  S
O662        H718   0.990       .  S
O662        H726   0.990       .  S
O663        C683   1.289       .  A
O664        C685   1.276       .  A
O665       Zr675   2.514       .  S
O665        C684   1.302       .  A
O666       Zr674   2.489       .  S
O666        C685   1.294       .  A
O667        C684   1.274       .  A
O668       Zr676   2.390       .  S
O668        C683   1.277       .  A
O669       Zr674   2.381       .  S
O669       Zr676   2.381       .  S
O670       Zr675   2.385       .  S
O670       Zr676   2.363       .  S
O670        H705   0.966       .  S
O671       Zr674   2.381       .  S
O671       Zr691   2.414       .  S
O671        H708   0.966       .  S
O672       Zr675   2.388       .  S
O672       Zr691   2.416       .  S
Zr673       O698   2.439       .  S
Zr673       O692   2.448       .  S
Zr673       O700   2.439       .  S
Zr673       O688   2.442       .  S
Zr673       O679   2.411       .  S
Zr673       O680   2.402       .  S
Zr673       O681   2.386       .  S
Zr673       O682   2.390       .  S
Zr674       O693   2.435       .  S
Zr674       O686   2.433       .  S
Zr674       O687   2.433       .  S
Zr674       O680   2.415       .  S
Zr674       O681   2.405       .  S
Zr675       O677   2.434       .  S
Zr675       O699   2.436       .  S
Zr675       O701   2.470       .  S
Zr675       O679   2.408       .  S
Zr675       O682   2.414       .  S
Zr676       O702   2.435       .  S
Zr676       O703   2.435       .  S
Zr676       O678   2.437       .  S
Zr676       O679   2.389       .  S
Zr676       O680   2.358       .  S
O677        H714   0.990       .  S
O678        H709   0.990       .  S
O678        H723   0.990       .  S
O680        H706   0.963       .  S
O681       Zr691   2.375       .  S
O682       Zr691   2.365       .  S
O682        H707   0.966       .  S
C683       C2128   1.497       .  S
C684       C2080   1.508       .  S
C685       C1921   1.483       .  S
O686        H722   0.990       .  S
O687        C689   1.285       .  A
O688        C689   1.290       .  A
C689       C2020   1.489       .  S
O690       Zr691   2.439       .  S
O690        H719   0.990       .  S
Zr691       O694   2.437       .  S
Zr691       O695   2.442       .  S
Zr691       O696   2.464       .  S
O692        C697   1.286       .  A
O693        H710   0.990       .  S
O693        H725   0.990       .  S
O694        H711   0.990       .  S
O695        H715   0.990       .  S
O695        H724   0.990       .  S
O696        C697   1.290       .  A
C697       C1972   1.517       .  S
O698        H717   0.990       .  S
O698        H721   0.990       .  S
O699        H713   0.990       .  S
O699        H720   0.990       .  S
O700        C704   1.286       .  A
O701        C704   1.292       .  A
O702        H712   0.990       .  S
O703        H716   0.990       .  S
C704       C1933   1.488       .  S
Zr727       O728   2.442       .  S
Zr727       O729   2.469       .  S
Zr727       O730   2.405       .  S
Zr727       O733   2.403       .  S
Zr727       O735   2.366       .  S
Zr727       O736   2.379       .  S
Zr727       O737   2.409       .  S
Zr727       O738   2.416       .  S
O728        H784   0.991       .  S
O728        H792   0.990       .  S
O729        C749   1.290       .  A
O730        C751   1.277       .  A
O731       Zr741   2.476       .  S
O731        C750   1.294       .  A
O732       Zr740   2.487       .  S
O732        C751   1.292       .  A
O733        C750   1.280       .  A
O734       Zr742   2.389       .  S
O734        C749   1.276       .  A
O735       Zr740   2.384       .  S
O735       Zr742   2.388       .  S
O736       Zr741   2.396       .  S
O736       Zr742   2.376       .  S
O736        H771   0.966       .  S
O737       Zr740   2.387       .  S
O737       Zr757   2.408       .  S
O737        H774   0.966       .  S
O738       Zr741   2.391       .  S
O738       Zr757   2.420       .  S
Zr739       O764   2.443       .  S
Zr739       O758   2.413       .  S
Zr739       O766   2.438       .  S
Zr739       O754   2.421       .  S
Zr739       O745   2.392       .  S
Zr739       O746   2.400       .  S
Zr739       O747   2.386       .  S
Zr739       O748   2.383       .  S
Zr740       O759   2.435       .  S
Zr740       O752   2.434       .  S
Zr740       O753   2.425       .  S
Zr740       O746   2.417       .  S
Zr740       O747   2.399       .  S
Zr741       O743   2.434       .  S
Zr741       O765   2.437       .  S
Zr741       O767   2.462       .  S
Zr741       O745   2.398       .  S
Zr741       O748   2.403       .  S
Zr742       O768   2.440       .  S
Zr742       O769   2.437       .  S
Zr742       O744   2.437       .  S
Zr742       O745   2.383       .  S
Zr742       O746   2.372       .  S
O743        H780   0.990       .  S
O744        H775   0.990       .  S
O744        H789   0.990       .  S
O746        H772   0.965       .  S
O747       Zr757   2.360       .  S
O748       Zr757   2.367       .  S
O748        H773   0.966       .  S
C749       C1984   1.495       .  S
C750       C2044   1.507       .  S
C751       C1936   1.488   1_554  S
O752        H788   0.990       .  S
O753        C755   1.285       .  A
O754        C755   1.285       .  A
C755       C2092   1.470       .  S
O756       Zr757   2.439       .  S
O756        H785   0.990       .  S
Zr757       O760   2.437       .  S
Zr757       O761   2.440       .  S
Zr757       O762   2.480       .  S
O758        C763   1.279       .  A
O759        H776   0.990       .  S
O759        H791   0.990       .  S
O760        H777   0.990       .  S
O761        H781   0.990       .  S
O761        H790   0.990       .  S
O762        C763   1.294       .  A
C763       C2152   1.509       .  S
O764        H783   0.990       .  S
O764        H787   0.990       .  S
O765        H779   0.990       .  S
O765        H786   0.990       .  S
O766        C770   1.286       .  A
O767        C770   1.290       .  A
O768        H778   0.990       .  S
O769        H782   0.990       .  S
C770       C1924   1.485       .  S
Zr793       O794   2.426       .  S
Zr793       O795   2.400       .  S
Zr793       O796   2.415       .  S
Zr793       O799   2.417       .  S
Zr793       O801   2.377       .  S
Zr793       O802   2.389       .  S
Zr793       O803   2.399       .  S
Zr793       O804   2.395       .  S
O794        H850   0.990       .  S
O794        H858   0.989       .  S
O795        C815   1.278       .  A
O796        C817   1.281       .  A
O797       Zr807   2.445       .  S
O797        C816   1.283       .  A
O798       Zr806   2.398       .  S
O798        C817   1.280       .  A
O799        C816   1.269       .  A
O800       Zr808   2.539       .  S
O800        C815   1.304       .  A
O801       Zr806   2.398       .  S
O801       Zr808   2.360       .  S
O802       Zr807   2.398       .  S
O802       Zr808   2.352       .  S
O802        H837   0.966       .  S
O803       Zr806   2.404       .  S
O803       Zr823   2.381       .  S
O803        H840   0.966       .  S
O804       Zr807   2.399       .  S
O804       Zr823   2.363       .  S
Zr805       O830   2.440       .  S
Zr805       O824   2.492       .  S
Zr805       O832   2.387       .  S
Zr805       O820   2.426       .  S
Zr805       O811   2.429       .  S
Zr805       O812   2.418       .  S
Zr805       O813   2.353       .  S
Zr805       O814   2.384       .  S
Zr806       O825   2.439       .  S
Zr806       O818   2.434       .  S
Zr806       O819   2.457       .  S
Zr806       O812   2.380       .  S
Zr806       O813   2.368       .  S
Zr807       O809   2.438       .  S
Zr807       O831   2.438       .  S
Zr807       O833   2.437       .  S
Zr807       O811   2.395       .  S
Zr807       O814   2.406       .  S
Zr808       O834   2.436       .  S
Zr808       O835   2.436       .  S
Zr808       O810   2.437       .  S
Zr808       O811   2.436       .  S
Zr808       O812   2.446       .  S
O809        H846   0.990       .  S
O810        H841   0.990       .  S
O810        H855   0.990       .  S
O812        H838   0.966       .  S
O813       Zr823   2.371       .  S
O814       Zr823   2.383       .  S
O814        H839   0.966       .  S
C815       C2380   1.511       .  S
C816       C2008   1.473       .  S
C817       C1873   1.455       .  S
O818        H854   0.990       .  S
O819        C821   1.288       .  A
O820        C821   1.282       .  A
C821       C1900   1.489       .  S
O822       Zr823   2.433       .  S
O822        H851   0.990       .  S
Zr823       O826   2.438       .  S
Zr823       O827   2.440       .  S
Zr823       O828   2.385       .  S
O824        C829   1.294       .  A
O825        H842   0.990       .  S
O825        H857   0.990       .  S
O826        H843   0.990       .  S
O827        H847   0.990       .  S
O827        H856   0.990       .  S
O828        C829   1.275       .  A
C829       C1909   1.486       .  S
O830        H849   0.990       .  S
O830        H853   0.990       .  S
O831        H845   0.990       .  S
O831        H852   0.990       .  S
O832        C836   1.277       .  A
O833        C836   1.284       .  A
O834        H844   0.990       .  S
O835        H848   0.990       .  S
C836       C1885   1.456       .  S
Zr859       O860   2.435       .  S
Zr859       O861   2.431       .  S
Zr859       O862   2.425       .  S
Zr859       O865   2.450       .  S
Zr859       O867   2.385       .  S
Zr859       O868   2.391       .  S
Zr859       O869   2.435       .  S
Zr859       O870   2.356       .  S
O860        H916   0.990       .  S
O860        H924   0.988       .  S
O861        C881   1.284       .  A
O862        C883   1.270       .  A
O863       Zr873   2.435       .  S
O863        C882   1.287       .  A
O864       Zr872   2.425       .  S
O864        C883   1.272       .  A
O865        C882   1.288       .  A
O866       Zr874   2.528       .  S
O866        C881   1.300       .  A
O867       Zr872   2.423       .  S
O867       Zr874   2.374       .  S
O868       Zr873   2.377       .  S
O868       Zr874   2.387       .  S
O868        H903   0.963       .  S
O869       Zr872   2.446       .  S
O869       Zr889   2.389       .  S
O869        H906   0.963       .  S
O870       Zr873   2.348       .  S
O870       Zr889   2.353       .  S
Zr871       O896   2.438       .  S
Zr871       O890   2.509       .  S
Zr871       O898   2.400       .  S
Zr871       O886   2.440       .  S
Zr871       O877   2.429       .  S
Zr871       O878   2.434       .  S
Zr871       O879   2.366       .  S
Zr871       O880   2.386       .  S
Zr872       O891   2.443       .  S
Zr872       O884   2.436       .  S
Zr872       O885   2.457       .  S
Zr872       O878   2.394       .  S
Zr872       O879   2.389       .  S
Zr873       O875   2.435       .  S
Zr873       O897   2.437       .  S
Zr873       O899   2.420       .  S
Zr873       O877   2.390       .  S
Zr873       O880   2.397       .  S
Zr874       O900   2.436   1_554  S
Zr874       O901   2.437   1_554  S
Zr874       O876   2.438       .  S
Zr874       O877   2.417       .  S
Zr874       O878   2.466       .  S
O875        H912   0.991       .  S
O876        H907   0.990   1_554  S
O876        H921   0.990       .  S
O878        H904   0.966       .  S
O879       Zr889   2.356       .  S
O880       Zr889   2.388       .  S
O880        H905   0.963       .  S
C881       C2344   1.519       .  S
C882       C2113   1.477       .  S
C883       C1840   1.472       .  S
O884        H920   0.990       .  S
O885        C887   1.289       .  A
O886        C887   1.285       .  A
C887       C1897   1.500       .  S
O888       Zr889   2.438       .  S
O888        H917   0.990       .  S
Zr889       O892   2.436       .  S
Zr889       O893   2.437       .  S
Zr889       O894   2.406       .  S
O890        C895   1.298       .  A
O891        H908   0.990       .  S
O891        H923   0.990       .  S
O892        H909   0.990       .  S
O893        H913   0.990       .  S
O893        H922   0.990       .  S
O894        C895   1.278       .  A
C895       C1849   1.490       .  S
O896        H915   0.990       .  S
O896        H919   0.990       .  S
O897        H911   0.990       .  S
O897        H918   0.990       .  S
O898        C902   1.268       .  A
O899        C902   1.273       .  A
O900        H910   0.990   1_556  S
O901        H914   0.990       .  S
C902       C1864   1.450       .  S
Zr925       O926   2.439       .  S
Zr925       O927   2.419       .  S
Zr925       O928   2.424       .  S
Zr925       O931   2.382       .  S
Zr925       O933   2.379       .  S
Zr925       O934   2.382       .  S
Zr925       O935   2.402       .  S
Zr925       O936   2.411       .  S
O926        H982   0.989       .  S
O926        H990   0.990       .  S
O927        C947   1.279       .  A
O928        C949   1.282   1_655  A
O929       Zr939   2.436       .  S
O929        C948   1.287       .  A
O930       Zr938   2.424   1_455  S
O930        C949   1.277       .  A
O931        C948   1.276       .  A
O932       Zr940   2.526       .  S
O932        C947   1.298       .  A
O933       Zr938   2.414       .  S
O933       Zr940   2.379       .  S
O934       Zr939   2.382       .  S
O934       Zr940   2.342       .  S
O934        H969   0.963       .  S
O935       Zr938   2.400       .  S
O935       Zr955   2.351       .  S
O935        H972   0.960       .  S
O936       Zr939   2.402       .  S
O936       Zr955   2.395       .  S
Zr937       O962   2.437       .  S
Zr937       O956   2.488       .  S
Zr937       O964   2.391       .  S
Zr937       O952   2.430       .  S
Zr937       O943   2.427       .  S
Zr937       O944   2.415       .  S
Zr937       O945   2.364       .  S
Zr937       O946   2.375       .  S
Zr938       O957   2.438       .  S
Zr938       O950   2.435   1_655  S
Zr938       O951   2.444       .  S
Zr938       O944   2.383       .  S
Zr938       O945   2.396       .  S
Zr939       O941   2.434       .  S
Zr939       O963   2.435       .  S
Zr939       O965   2.453       .  S
Zr939       O943   2.397       .  S
Zr939       O946   2.380       .  S
Zr940       O966   2.436       .  S
Zr940       O967   2.435       .  S
Zr940       O942   2.436       .  S
Zr940       O943   2.432       .  S
Zr940       O944   2.434       .  S
O941        H978   0.990       .  S
O942        H973   0.990   1_655  S
O942        H987   0.989   1_655  S
O944        H970   0.966       .  S
O945       Zr955   2.391       .  S
O946       Zr955   2.359       .  S
O946        H971   0.965       .  S
C947       C2248   1.512       .  S
C948       C2068   1.472       .  S
C949       C1792   1.474       .  S
O950        H986   0.990       .  S
O951        C953   1.286       .  A
O952        C953   1.285       .  A
C953       C1813   1.488       .  S
O954       Zr955   2.436       .  S
O954        H983   0.990       .  S
Zr955       O958   2.436       .  S
Zr955       O959   2.439       .  S
Zr955       O960   2.396       .  S
O956        C961   1.295       .  A
O957        H974   0.990   1_655  S
O957        H989   0.990       .  S
O958        H975   0.990       .  S
O959        H979   0.990       .  S
O959        H988   0.990       .  S
O960        C961   1.277       .  A
C961       C1825   1.509       .  S
O962        H981   0.990       .  S
O962        H985   0.990       .  S
O963        H977   0.990       .  S
O963        H984   0.990       .  S
O964        C968   1.278       .  A
O965        C968   1.288       .  A
O966        H976   0.990       .  S
O967        H980   0.990       .  S
C968       C1801   1.477       .  S
Zr991       O992   2.439       .  S
Zr991       O993   2.406       .  S
Zr991       O994   2.434       .  S
Zr991       O997   2.428       .  S
Zr991       O999   2.381       .  S
Zr991      O1000   2.396       .  S
Zr991      O1001   2.414       .  S
Zr991      O1002   2.401       .  S
O992       H1048   0.990       .  S
O992       H1056   0.990       .  S
O993       C1013   1.279       .  A
O994       C1015   1.285       .  A
O995      Zr1005   2.418       .  S
O995       C1014   1.278       .  A
O996      Zr1004   2.410       .  S
O996       C1015   1.278       .  A
O997       C1014   1.273       .  A
O998      Zr1006   2.537       .  S
O998       C1013   1.303       .  A
O999      Zr1004   2.407       .  S
O999      Zr1006   2.361       .  S
O1000     Zr1005   2.416       .  S
O1000     Zr1006   2.356       .  S
O1000      H1035   0.966       .  S
O1001     Zr1004   2.405       .  S
O1001     Zr1021   2.366       .  S
O1001      H1038   0.965       .  S
O1002     Zr1005   2.419       .  S
O1002     Zr1021   2.375       .  S
Zr1003     O1028   2.442       .  S
Zr1003     O1022   2.500       .  S
Zr1003     O1030   2.382       .  S
Zr1003     O1018   2.409       .  S
Zr1003     O1009   2.427       .  S
Zr1003     O1010   2.425       .  S
Zr1003     O1011   2.358       .  S
Zr1003     O1012   2.378       .  S
Zr1004     O1023   2.438       .  S
Zr1004     O1016   2.434       .  S
Zr1004     O1017   2.461       .  S
Zr1004     O1010   2.380       .  S
Zr1004     O1011   2.375       .  S
Zr1005     O1007   2.440       .  S
Zr1005     O1029   2.437       .  S
Zr1005     O1031   2.480       .  S
Zr1005     O1009   2.388       .  S
Zr1005     O1012   2.387       .  S
Zr1006     O1032   2.434       .  S
Zr1006     O1033   2.436       .  S
Zr1006     O1008   2.437       .  S
Zr1006     O1009   2.445       .  S
Zr1006     O1010   2.442       .  S
O1007      H1044   0.990       .  S
O1008      H1039   0.991       .  S
O1008      H1053   0.990       .  S
O1010      H1036   0.966       .  S
O1011     Zr1021   2.369       .  S
O1012     Zr1021   2.376       .  S
O1012      H1037   0.963       .  S
C1013      C2188   1.519       .  S
C1014      C1960   1.459       .  S
C1015      C1753   1.482       .  S
O1016      H1052   0.990   1_655  S
O1017      C1019   1.288       .  A
O1018      C1019   1.279       .  A
C1019      C1816   1.476       .  S
O1020     Zr1021   2.433       .  S
O1020      H1049   0.990       .  S
Zr1021     O1024   2.435       .  S
Zr1021     O1025   2.439       .  S
Zr1021     O1026   2.396       .  S
O1022      C1027   1.294       .  A
O1023      H1040   0.989       .  S
O1023      H1055   0.989       .  S
O1024      H1041   0.990       .  S
O1025      H1045   0.990       .  S
O1025      H1054   0.990       .  S
O1026      C1027   1.272       .  A
C1027      C1765   1.490       .  S
O1028      H1047   0.990       .  S
O1028      H1051   0.990       .  S
O1029      H1043   0.990       .  S
O1029      H1050   0.990       .  S
O1030      C1034   1.273       .  A
O1031      C1034   1.292       .  A
O1032      H1042   0.990       .  S
O1033      H1046   0.990       .  S
C1034      C1777   1.491       .  S
Zr1057     O1058   2.441       .  S
Zr1057     O1059   2.435       .  S
Zr1057     O1060   2.415       .  S
Zr1057     O1063   2.419       .  S
Zr1057     O1065   2.381   1_554  S
Zr1057     O1066   2.384   1_554  S
Zr1057     O1067   2.403   1_554  S
Zr1057     O1068   2.385   1_554  S
O1058      H1114   0.990       .  S
O1058      H1122   0.990       .  S
O1059      C1079   1.283       .  A
O1060      C1081   1.280       .  A
O1061     Zr1071   2.420       .  S
O1061      C1080   1.284   1_556  A
O1062     Zr1070   2.470   1_554  S
O1062      C1081   1.290       .  A
O1063      C1080   1.282       .  A
O1064     Zr1072   2.463   1_554  S
O1064      C1079   1.290       .  A
O1065     Zr1070   2.411       .  S
O1065     Zr1072   2.372       .  S
O1066     Zr1071   2.394       .  S
O1066     Zr1072   2.374       .  S
O1066      H1101   0.965       .  S
O1067     Zr1070   2.405       .  S
O1067     Zr1087   2.389       .  S
O1067      H1104   0.966   1_556  S
O1068     Zr1071   2.400       .  S
O1068     Zr1087   2.372       .  S
Zr1069     O1094   2.441       .  S
Zr1069     O1088   2.450       .  S
Zr1069     O1096   2.416       .  S
Zr1069     O1084   2.388       .  S
Zr1069     O1075   2.396       .  S
Zr1069     O1076   2.412       .  S
Zr1069     O1077   2.379       .  S
Zr1069     O1078   2.369       .  S
Zr1070     O1089   2.438       .  S
Zr1070     O1082   2.434       .  S
Zr1070     O1083   2.497       .  S
Zr1070     O1076   2.401       .  S
Zr1070     O1077   2.391       .  S
Zr1071     O1073   2.436       .  S
Zr1071     O1095   2.438       .  S
Zr1071     O1097   2.466       .  S
Zr1071     O1075   2.385       .  S
Zr1071     O1078   2.378       .  S
Zr1072     O1098   2.435       .  S
Zr1072     O1099   2.435       .  S
Zr1072     O1074   2.436       .  S
Zr1072     O1075   2.407       .  S
Zr1072     O1076   2.416       .  S
O1073      H1110   0.990       .  S
O1074      H1105   0.990   1_556  S
O1074      H1119   0.990       .  S
O1076      H1102   0.966       .  S
O1077     Zr1087   2.371       .  S
O1078     Zr1087   2.392       .  S
O1078      H1103   0.966       .  S
C1079      C1912   1.492       .  S
C1080      C1861   1.477       .  S
C1081      C1729   1.480       .  S
O1082      H1118   0.990       .  S
O1083      C1085   1.297       .  A
O1084      C1085   1.277       .  A
C1085      C1768   1.493       .  S
O1086     Zr1087   2.435   1_554  S
O1086      H1115   0.990       .  S
Zr1087     O1090   2.437       .  S
Zr1087     O1091   2.437       .  S
Zr1087     O1092   2.392       .  S
O1088      C1093   1.287       .  A
O1089      H1106   0.990   1_556  S
O1089      H1121   0.990   1_556  S
O1090      H1107   0.990       .  S
O1091      H1111   0.990       .  S
O1091      H1120   0.990       .  S
O1092      C1093   1.278       .  A
C1093      C1804   1.485       .  S
O1094      H1113   0.991       .  S
O1094      H1117   0.990       .  S
O1095      H1109   0.990       .  S
O1095      H1116   0.990       .  S
O1096      C1100   1.279       .  A
O1097      C1100   1.288       .  A
O1098      H1108   0.990       .  S
O1099      H1112   0.990       .  S
C1100      C1741   1.484       .  S
Zr1123     O1124   2.441       .  S
Zr1123     O1125   2.425       .  S
Zr1123     O1126   2.445       .  S
Zr1123     O1129   2.434       .  S
Zr1123     O1131   2.383       .  S
Zr1123     O1132   2.395       .  S
Zr1123     O1133   2.406       .  S
Zr1123     O1134   2.381       .  S
O1124      H1180   0.990       .  S
O1124      H1188   0.990       .  S
O1125      C1145   1.279       .  A
O1126      C1147   1.286       .  A
O1127     Zr1137   2.425       .  S
O1127      C1146   1.284       .  A
O1128     Zr1136   2.450       .  S
O1128      C1147   1.287       .  A
O1129      C1146   1.286       .  A
O1130     Zr1138   2.481       .  S
O1130      C1145   1.293       .  A
O1131     Zr1136   2.415       .  S
O1131     Zr1138   2.378       .  S
O1132     Zr1137   2.409       .  S
O1132     Zr1138   2.374       .  S
O1132      H1167   0.966       .  S
O1133     Zr1136   2.415       .  S
O1133     Zr1153   2.388       .  S
O1133      H1170   0.965       .  S
O1134     Zr1137   2.395       .  S
O1134     Zr1153   2.347       .  S
Zr1135     O1160   2.440       .  S
Zr1135     O1154   2.468       .  S
Zr1135     O1162   2.404       .  S
Zr1135     O1150   2.397       .  S
Zr1135     O1141   2.405       .  S
Zr1135     O1142   2.414       .  S
Zr1135     O1143   2.368       .  S
Zr1135     O1144   2.369       .  S
Zr1136     O1155   2.438       .  S
Zr1136     O1148   2.433       .  S
Zr1136     O1149   2.486       .  S
Zr1136     O1142   2.396       .  S
Zr1136     O1143   2.383       .  S
Zr1137     O1139   2.436       .  S
Zr1137     O1161   2.436       .  S
Zr1137     O1163   2.477       .  S
Zr1137     O1141   2.378       .  S
Zr1137     O1144   2.383       .  S
Zr1138     O1164   2.436       .  S
Zr1138     O1165   2.435       .  S
Zr1138     O1140   2.437       .  S
Zr1138     O1141   2.416       .  S
Zr1138     O1142   2.431       .  S
O1139      H1176   0.990       .  S
O1140      H1171   0.990       .  S
O1140      H1185   0.990       .  S
O1142      H1168   0.966       .  S
O1143     Zr1153   2.372       .  S
O1144     Zr1153   2.392       .  S
O1144      H1169   0.966       .  S
C1145      C1852   1.512       .  S
C1146      C1888   1.468       .  S
C1147      C1732   1.493       .  S
O1148      H1184   0.990       .  S
O1149      C1151   1.294       .  A
O1150      C1151   1.278       .  A
C1151      C1828   1.502       .  S
O1152     Zr1153   2.438       .  S
O1152      H1181   0.990       .  S
Zr1153     O1156   2.436       .  S
Zr1153     O1157   2.438       .  S
Zr1153     O1158   2.368       .  S
O1154      C1159   1.292       .  A
O1155      H1172   0.990       .  S
O1155      H1187   0.990       .  S
O1156      H1173   0.990       .  S
O1157      H1177   0.990       .  S
O1157      H1186   0.991       .  S
O1158      C1159   1.272       .  A
C1159      C1780   1.475       .  S
O1160      H1179   0.990       .  S
O1160      H1183   0.990       .  S
O1161      H1175   0.990       .  S
O1161      H1182   0.990       .  S
O1162      C1166   1.279       .  A
O1163      C1166   1.291       .  A
O1164      H1174   0.990       .  S
O1165      H1178   0.990       .  S
C1166      C1744   1.486       .  S
Zr1189     O1190   2.445   1_545  S
Zr1189     O1191   2.429   1_545  S
Zr1189     O1192   2.418       .  S
Zr1189     O1195   2.439   1_545  S
Zr1189     O1197   2.379       .  S
Zr1189     O1198   2.384       .  S
Zr1189     O1199   2.424       .  S
Zr1189     O1200   2.381       .  S
O1190      H1246   0.990       .  S
O1190      H1254   0.991   1_565  S
O1191      C1211   1.279   1_565  A
O1192      C1213   1.282       .  A
O1193     Zr1203   2.437   1_565  S
O1193      C1212   1.284       .  A
O1194     Zr1202   2.429       .  S
O1194      C1213   1.282       .  A
O1195      C1212   1.286       .  A
O1196     Zr1204   2.504       .  S
O1196      C1211   1.294       .  A
O1197     Zr1202   2.407       .  S
O1197     Zr1204   2.368       .  S
O1198     Zr1203   2.416       .  S
O1198     Zr1204   2.381       .  S
O1198      H1233   0.966   1_545  S
O1199     Zr1202   2.403       .  S
O1199     Zr1219   2.370       .  S
O1199      H1236   0.960       .  S
O1200     Zr1203   2.366       .  S
O1200     Zr1219   2.362       .  S
Zr1201     O1226   2.441       .  S
Zr1201     O1220   2.526       .  S
Zr1201     O1228   2.430       .  S
Zr1201     O1216   2.398       .  S
Zr1201     O1207   2.437       .  S
Zr1201     O1208   2.433       .  S
Zr1201     O1209   2.363       .  S
Zr1201     O1210   2.373       .  S
Zr1202     O1221   2.436       .  S
Zr1202     O1214   2.434       .  S
Zr1202     O1215   2.455       .  S
Zr1202     O1208   2.397       .  S
Zr1202     O1209   2.395       .  S
Zr1203     O1205   2.440   1_545  S
Zr1203     O1227   2.437   1_545  S
Zr1203     O1229   2.439       .  S
Zr1203     O1207   2.391       .  S
Zr1203     O1210   2.415       .  S
Zr1204     O1230   2.437   1_545  S
Zr1204     O1231   2.435       .  S
Zr1204     O1206   2.436       .  S
Zr1204     O1207   2.445       .  S
Zr1204     O1208   2.418       .  S
O1205      H1242   0.990       .  S
O1206      H1237   0.990       .  S
O1206      H1251   0.990       .  S
O1208      H1234   0.965       .  S
O1209     Zr1219   2.379       .  S
O1210     Zr1219   2.374       .  S
O1210      H1235   0.965       .  S
C1211      C2104   1.515   1_545  S
C1212      C2332   1.467       .  S
C1213      C1837   1.477       .  S
O1214      H1250   0.990       .  S
O1215      C1217   1.287       .  A
O1216      C1217   1.277       .  A
C1217      C1693   1.465       .  S
O1218     Zr1219   2.438       .  S
O1218      H1247   0.990       .  S
Zr1219     O1222   2.438       .  S
Zr1219     O1223   2.441       .  S
Zr1219     O1224   2.399       .  S
O1220      C1225   1.301       .  A
O1221      H1238   0.990       .  S
O1221      H1253   0.990       .  S
O1222      H1239   0.990       .  S
O1223      H1243   0.990       .  S
O1223      H1252   0.990       .  S
O1224      C1225   1.277       .  A
C1225      C1717   1.527       .  S
O1226      H1245   0.990       .  S
O1226      H1249   0.991       .  S
O1227      H1241   0.990       .  S
O1227      H1248   0.990       .  S
O1228      C1232   1.283       .  A
O1229      C1232   1.283       .  A
O1230      H1240   0.990       .  S
O1231      H1244   0.990       .  S
C1232      C1705   1.473       .  S
Zr1255     O1256   2.417       .  S
Zr1255     O1257   2.407       .  S
Zr1255     O1258   2.441       .  S
Zr1255     O1261   2.435       .  S
Zr1255     O1263   2.375       .  S
Zr1255     O1264   2.388       .  S
Zr1255     O1265   2.413       .  S
Zr1255     O1266   2.366       .  S
O1256      H1312   0.988       .  S
O1256      H1320   0.988       .  S
O1257      C1277   1.278       .  A
O1258      C1279   1.274       .  A
O1259     Zr1269   2.449       .  S
O1259      C1278   1.291       .  A
O1260     Zr1268   2.428       .  S
O1260      C1279   1.275       .  A
O1261      C1278   1.286       .  A
O1262     Zr1270   2.504       .  S
O1262      C1277   1.295       .  A
O1263     Zr1268   2.414       .  S
O1263     Zr1270   2.376       .  S
O1264     Zr1269   2.409       .  S
O1264     Zr1270   2.378       .  S
O1264      H1299   0.966       .  S
O1265     Zr1268   2.435       .  S
O1265     Zr1285   2.378       .  S
O1265      H1302   0.961       .  S
O1266     Zr1269   2.358       .  S
O1266     Zr1285   2.337       .  S
Zr1267     O1292   2.441       .  S
Zr1267     O1286   2.477       .  S
Zr1267     O1294   2.407       .  S
Zr1267     O1282   2.388       .  S
Zr1267     O1273   2.414       .  S
Zr1267     O1274   2.418       .  S
Zr1267     O1275   2.375       .  S
Zr1267     O1276   2.371       .  S
Zr1268     O1287   2.442       .  S
Zr1268     O1280   2.435       .  S
Zr1268     O1281   2.458       .  S
Zr1268     O1274   2.403       .  S
Zr1268     O1275   2.386       .  S
Zr1269     O1271   2.437   1_545  S
Zr1269     O1293   2.436   1_545  S
Zr1269     O1295   2.467       .  S
Zr1269     O1273   2.380       .  S
Zr1269     O1276   2.396       .  S
Zr1270     O1296   2.436   1_545  S
Zr1270     O1297   2.436       .  S
Zr1270     O1272   2.436       .  S
Zr1270     O1273   2.431       .  S
Zr1270     O1274   2.437       .  S
O1271      H1308   0.991   1_565  S
O1272      H1303   0.990       .  S
O1272      H1317   0.990       .  S
O1274      H1300   0.966       .  S
O1275     Zr1285   2.372       .  S
O1276     Zr1285   2.372       .  S
O1276      H1301   0.965       .  S
C1277      C2056   1.506       .  S
C1278      C2260   1.474       .  S
C1279      C1789   1.471       .  S
O1280      H1316   0.990       .  S
O1281      C1283   1.286       .  A
O1282      C1283   1.271       .  A
C1283      C1684   1.476       .  S
O1284     Zr1285   2.436       .  S
O1284      H1313   0.990       .  S
Zr1285     O1288   2.435       .  S
Zr1285     O1289   2.439       .  S
Zr1285     O1290   2.376       .  S
O1286      C1291   1.290       .  A
O1287      H1304   0.990       .  S
O1287      H1319   0.990       .  S
O1288      H1305   0.990       .  S
O1289      H1309   0.990       .  S
O1289      H1318   0.990       .  S
O1290      C1291   1.273       .  A
C1291      C1672   1.475       .  S
O1292      H1311   0.990       .  S
O1292      H1315   0.990       .  S
O1293      H1307   0.990       .  S
O1293      H1314   0.990       .  S
O1294      C1298   1.280       .  A
O1295      C1298   1.289       .  A
O1296      H1306   0.990       .  S
O1297      H1310   0.990       .  S
C1298      C1708   1.476       .  S
Zr1321     O1322   2.439       .  S
Zr1321     O1323   2.422       .  S
Zr1321     O1324   2.425       .  S
Zr1321     O1327   2.441       .  S
Zr1321     O1329   2.386       .  S
Zr1321     O1330   2.394       .  S
Zr1321     O1331   2.424       .  S
Zr1321     O1332   2.378       .  S
O1322      H1378   0.991       .  S
O1322      H1386   0.990       .  S
O1323      C1343   1.276       .  A
O1324      C1345   1.282       .  A
O1325     Zr1335   2.418       .  S
O1325      C1344   1.275       .  A
O1326     Zr1334   2.406       .  S
O1326      C1345   1.279       .  A
O1327      C1344   1.289       .  A
O1328     Zr1336   2.524       .  S
O1328      C1343   1.298       .  A
O1329     Zr1334   2.379       .  S
O1329     Zr1336   2.357       .  S
O1330     Zr1335   2.414       .  S
O1330     Zr1336   2.381       .  S
O1330      H1365   0.966       .  S
O1331     Zr1334   2.417       .  S
O1331     Zr1351   2.373       .  S
O1331      H1368   0.963       .  S
O1332     Zr1335   2.392       .  S
O1332     Zr1351   2.348       .  S
Zr1333     O1358   2.437       .  S
Zr1333     O1352   2.490       .  S
Zr1333     O1360   2.435       .  S
Zr1333     O1348   2.395       .  S
Zr1333     O1339   2.424       .  S
Zr1333     O1340   2.433       .  S
Zr1333     O1341   2.365       .  S
Zr1333     O1342   2.371       .  S
Zr1334     O1353   2.442       .  S
Zr1334     O1346   2.434       .  S
Zr1334     O1347   2.435       .  S
Zr1334     O1340   2.387       .  S
Zr1334     O1341   2.378       .  S
Zr1335     O1337   2.437       .  S
Zr1335     O1359   2.434       .  S
Zr1335     O1361   2.457       .  S
Zr1335     O1339   2.374       .  S
Zr1335     O1342   2.404       .  S
Zr1336     O1362   2.438       .  S
Zr1336     O1363   2.436       .  S
Zr1336     O1338   2.440       .  S
Zr1336     O1339   2.447       .  S
Zr1336     O1340   2.438       .  S
O1337      H1374   0.990       .  S
O1338      H1369   0.990       .  S
O1338      H1383   0.990       .  S
O1340      H1366   0.966       .  S
O1341     Zr1351   2.364       .  S
O1342     Zr1351   2.370       .  S
O1342      H1367   0.964       .  S
C1343      C1996   1.513       .  S
C1344      C2404   1.462       .  S
C1345      C1876   1.450       .  S
O1346      H1382   0.990       .  S
O1347      C1349   1.281       .  A
O1348      C1349   1.279       .  A
C1349      C1633   1.457       .  S
O1350     Zr1351   2.439   1_554  S
O1350      H1379   0.990       .  S
Zr1351     O1354   2.438       .  S
Zr1351     O1355   2.439       .  S
Zr1351     O1356   2.379       .  S
O1352      C1357   1.293       .  A
O1353      H1370   0.990       .  S
O1353      H1385   0.989       .  S
O1354      H1371   0.991   1_556  S
O1355      H1375   0.990       .  S
O1355      H1384   0.990       .  S
O1356      C1357   1.273       .  A
C1357      C1657   1.486       .  S
O1358      H1377   0.990       .  S
O1358      H1381   0.990       .  S
O1359      H1373   0.990       .  S
O1359      H1380   0.990       .  S
O1360      C1364   1.285       .  A
O1361      C1364   1.289       .  A
O1362      H1372   0.990       .  S
O1363      H1376   0.990       .  S
C1364      C1645   1.504       .  S
Zr1387     O1388   2.437       .  S
Zr1387     O1389   2.434       .  S
Zr1387     O1390   2.431       .  S
Zr1387     O1393   2.461       .  S
Zr1387     O1395   2.387       .  S
Zr1387     O1396   2.392       .  S
Zr1387     O1397   2.422       .  S
Zr1387     O1398   2.370       .  S
O1388      H1444   0.990       .  S
O1388      H1452   0.987       .  S
O1389      C1409   1.281       .  A
O1390      C1411   1.271       .  A
O1391     Zr1401   2.428       .  S
O1391      C1410   1.286       .  A
O1392     Zr1400   2.434       .  S
O1392      C1411   1.281       .  A
O1393      C1410   1.290       .  A
O1394     Zr1402   2.517   1_554  S
O1394      C1409   1.297   1_554  A
O1395     Zr1400   2.408       .  S
O1395     Zr1402   2.358       .  S
O1396     Zr1401   2.418       .  S
O1396     Zr1402   2.384       .  S
O1396      H1431   0.966       .  S
O1397     Zr1400   2.432       .  S
O1397     Zr1417   2.371       .  S
O1397      H1434   0.958       .  S
O1398     Zr1401   2.366       .  S
O1398     Zr1417   2.352       .  S
Zr1399     O1424   2.441       .  S
Zr1399     O1418   2.492       .  S
Zr1399     O1426   2.414       .  S
Zr1399     O1414   2.380       .  S
Zr1399     O1405   2.421       .  S
Zr1399     O1406   2.428       .  S
Zr1399     O1407   2.373       .  S
Zr1399     O1408   2.363       .  S
Zr1400     O1419   2.437       .  S
Zr1400     O1412   2.434   1_556  S
Zr1400     O1413   2.472       .  S
Zr1400     O1406   2.396       .  S
Zr1400     O1407   2.398       .  S
Zr1401     O1403   2.440       .  S
Zr1401     O1425   2.437       .  S
Zr1401     O1427   2.472       .  S
Zr1401     O1405   2.375       .  S
Zr1401     O1408   2.397       .  S
Zr1402     O1428   2.436   1_556  S
Zr1402     O1429   2.435   1_556  S
Zr1402     O1404   2.435   1_556  S
Zr1402     O1405   2.444       .  S
Zr1402     O1406   2.426       .  S
O1403      H1440   0.990       .  S
O1404      H1435   0.990       .  S
O1404      H1449   0.989       .  S
O1406      H1432   0.966   1_556  S
O1407     Zr1417   2.375       .  S
O1408     Zr1417   2.375       .  S
O1408      H1433   0.965       .  S
C1409      C1948   1.520   1_556  S
C1410      C2212   1.477       .  S
C1411      C1756   1.476       .  S
O1412      H1448   0.990       .  S
O1413      C1415   1.291       .  A
O1414      C1415   1.276       .  A
C1415      C1624   1.472   1_556  S
O1416     Zr1417   2.438       .  S
O1416      H1445   0.990       .  S
Zr1417     O1420   2.436       .  S
Zr1417     O1421   2.441       .  S
Zr1417     O1422   2.391       .  S
O1418      C1423   1.295       .  A
O1419      H1436   0.990       .  S
O1419      H1451   0.990       .  S
O1420      H1437   0.990       .  S
O1421      H1441   0.990       .  S
O1421      H1450   0.990       .  S
O1422      C1423   1.274       .  A
C1423      C1609   1.506       .  S
O1424      H1443   0.990       .  S
O1424      H1447   0.990   1_556  S
O1425      H1439   0.990       .  S
O1425      H1446   0.990       .  S
O1426      C1430   1.281       .  A
O1427      C1430   1.289       .  A
O1428      H1438   0.990       .  S
O1429      H1442   0.990       .  S
C1430      C1648   1.485       .  S
Zr1453     O1454   2.440       .  S
Zr1453     O1455   2.453       .  S
Zr1453     O1456   2.413       .  S
Zr1453     O1459   2.408       .  S
Zr1453     O1461   2.367       .  S
Zr1453     O1462   2.388       .  S
Zr1453     O1463   2.404       .  S
Zr1453     O1464   2.414       .  S
O1454      H1510   0.990       .  S
O1454      H1518   0.990       .  S
O1455      C1475   1.287       .  A
O1456      C1477   1.280       .  A
O1457     Zr1467   2.486       .  S
O1457      C1476   1.296       .  A
O1458     Zr1466   2.493       .  S
O1458      C1477   1.295       .  A
O1459      C1476   1.280       .  A
O1460     Zr1468   2.380       .  S
O1460      C1475   1.277       .  A
O1461     Zr1466   2.374       .  S
O1461     Zr1468   2.378       .  S
O1462     Zr1467   2.396       .  S
O1462     Zr1468   2.370       .  S
O1462      H1497   0.966       .  S
O1463     Zr1466   2.388       .  S
O1463     Zr1483   2.399       .  S
O1463      H1500   0.966       .  S
O1464     Zr1467   2.399       .  S
O1464     Zr1483   2.415       .  S
Zr1465     O1490   2.440       .  S
Zr1465     O1484   2.416       .  S
Zr1465     O1492   2.425       .  S
Zr1465     O1480   2.430       .  S
Zr1465     O1471   2.391       .  S
Zr1465     O1472   2.398       .  S
Zr1465     O1473   2.386       .  S
Zr1465     O1474   2.384       .  S
Zr1466     O1485   2.436       .  S
Zr1466     O1478   2.434       .  S
Zr1466     O1479   2.438       .  S
Zr1466     O1472   2.421       .  S
Zr1466     O1473   2.398       .  S
Zr1467     O1469   2.435       .  S
Zr1467     O1491   2.436       .  S
Zr1467     O1493   2.473       .  S
Zr1467     O1471   2.394       .  S
Zr1467     O1474   2.405       .  S
Zr1468     O1494   2.436       .  S
Zr1468     O1495   2.437       .  S
Zr1468     O1470   2.437       .  S
Zr1468     O1471   2.377       .  S
Zr1468     O1472   2.372       .  S
O1469      H1506   0.990       .  S
O1470      H1501   0.990       .  S
O1470      H1515   0.990       .  S
O1472      H1498   0.965       .  S
O1473     Zr1483   2.367       .  S
O1474     Zr1483   2.374       .  S
O1474      H1499   0.966       .  S
C1475      C1636   1.481       .  S
C1476      C1612   1.494       .  S
C1477      C1597   1.492       .  S
O1478      H1514   0.990       .  S
O1479      C1481   1.286       .  A
O1480      C1481   1.286       .  A
C1481      C1696   1.495       .  S
O1482     Zr1483   2.439       .  S
O1482      H1511   0.990       .  S
Zr1483     O1486   2.436       .  S
Zr1483     O1487   2.439       .  S
Zr1483     O1488   2.454       .  S
O1484      C1489   1.280       .  A
O1485      H1502   0.990       .  S
O1485      H1517   0.990       .  S
O1486      H1503   0.990       .  S
O1487      H1507   0.990       .  S
O1487      H1516   0.989       .  S
O1488      C1489   1.288       .  A
C1489      C1669   1.480       .  S
O1490      H1509   0.990       .  S
O1490      H1513   0.990       .  S
O1491      H1505   0.990       .  S
O1491      H1512   0.990       .  S
O1492      C1496   1.284       .  A
O1493      C1496   1.292       .  A
O1494      H1504   0.990       .  S
O1495      H1508   0.990       .  S
C1496      C1588   1.488       .  S
Zr1519     O1520   2.439       .  S
Zr1519     O1521   2.425       .  S
Zr1519     O1522   2.408       .  S
Zr1519     O1525   2.405       .  S
Zr1519     O1527   2.373       .  S
Zr1519     O1528   2.384       .  S
Zr1519     O1529   2.402       .  S
Zr1519     O1530   2.404       .  S
O1520      H1576   0.990       .  S
O1520      H1584   0.990       .  S
O1521      C1541   1.282       .  A
O1522      C1543   1.280       .  A
O1523     Zr1533   2.530       .  S
O1523      C1542   1.304       .  A
O1524     Zr1532   2.483       .  S
O1524      C1543   1.293       .  A
O1525      C1542   1.280       .  A
O1526     Zr1534   2.392       .  S
O1526      C1541   1.276       .  A
O1527     Zr1532   2.382       .  S
O1527     Zr1534   2.381       .  S
O1528     Zr1533   2.390       .  S
O1528     Zr1534   2.366       .  S
O1528      H1563   0.965       .  S
O1529     Zr1532   2.397       .  S
O1529     Zr1549   2.403       .  S
O1529      H1566   0.966       .  S
O1530     Zr1533   2.397       .  S
O1530     Zr1549   2.415       .  S
Zr1531     O1556   2.445   1_554  S
Zr1531     O1550   2.429       .  S
Zr1531     O1558   2.421   1_554  S
Zr1531     O1546   2.427       .  S
Zr1531     O1537   2.400       .  S
Zr1531     O1538   2.394       .  S
Zr1531     O1539   2.380       .  S
Zr1531     O1540   2.387       .  S
Zr1532     O1551   2.435       .  S
Zr1532     O1544   2.435       .  S
Zr1532     O1545   2.448       .  S
Zr1532     O1538   2.410       .  S
Zr1532     O1539   2.403       .  S
Zr1533     O1535   2.436       .  S
Zr1533     O1557   2.435       .  S
Zr1533     O1559   2.490       .  S
Zr1533     O1537   2.407       .  S
Zr1533     O1540   2.412       .  S
Zr1534     O1560   2.439       .  S
Zr1534     O1561   2.434       .  S
Zr1534     O1536   2.436       .  S
Zr1534     O1537   2.383       .  S
Zr1534     O1538   2.368       .  S
O1535      H1572   0.990       .  S
O1536      H1567   0.990       .  S
O1536      H1581   0.990       .  S
O1538      H1564   0.965       .  S
O1539     Zr1549   2.374       .  S
O1540     Zr1549   2.370       .  S
O1540      H1565   0.966       .  S
C1541      C1681   1.456       .  S
C1542      C1720   1.524       .  S
C1543      C1585   1.487       .  S
O1544      H1580   0.990       .  S
O1545      C1547   1.289       .  A
O1546      C1547   1.283       .  A
C1547      C1621   1.499       .  S
O1548     Zr1549   2.437       .  S
O1548      H1577   0.990       .  S
Zr1549     O1552   2.436       .  S
Zr1549     O1553   2.439       .  S
Zr1549     O1554   2.458       .  S
O1550      C1555   1.283       .  A
O1551      H1568   0.990       .  S
O1551      H1583   0.990       .  S
O1552      H1569   0.990       .  S
O1553      H1573   0.990       .  S
O1553      H1582   0.990       .  S
O1554      C1555   1.290       .  A
C1555      C1660   1.500       .  S
O1556      H1575   0.990       .  S
O1556      H1579   0.990   1_556  S
O1557      H1571   0.990       .  S
O1557      H1578   0.990       .  S
O1558      C1562   1.283       .  A
O1559      C1562   1.296   1_554  A
O1560      H1570   0.990       .  S
O1561      H1574   0.989       .  S
C1562      C1600   1.491       .  S
C1585      C1586   1.407       .  A
C1585      C1590   1.412       .  A
C1586      C1587   1.413       .  A
C1586      H1591   1.084       .  S
C1587      C1588   1.413       .  A
C1587      C1594   1.443       .  S
C1588      C1589   1.403       .  A
C1589      C1590   1.403       .  A
C1589      H1592   1.085       .  S
C1590      C1593   1.445       .  S
C1593      N1595   1.157       .  T
C1594      N1596   1.157       .  T
C1597      C1598   1.406       .  A
C1597      C1602   1.414       .  A
C1598      C1599   1.408       .  A
C1598      H1603   1.085       .  S
C1599      C1600   1.414       .  A
C1599      C1606   1.444       .  S
C1600      C1601   1.406       .  A
C1601      C1602   1.411       .  A
C1601      H1604   1.085       .  S
C1602      C1605   1.443       .  S
C1605      N1607   1.157       .  T
C1606      N1608   1.157       .  T
C1609      C1610   1.406       .  A
C1609      C1614   1.429       .  A
C1610      C1611   1.410       .  A
C1610      H1615   1.084       .  S
C1611      C1612   1.420       .  A
C1611      C1618   1.443       .  S
C1612      C1613   1.396       .  A
C1613      C1614   1.401       .  A
C1613      H1616   1.085       .  S
C1614      C1617   1.445       .  S
C1617      N1619   1.157       .  T
C1618      N1620   1.157       .  T
C1621      C1622   1.413       .  A
C1621      C1626   1.423       .  A
C1622      C1623   1.407       .  A
C1622      H1627   1.084       .  S
C1623      C1624   1.408       .  A
C1623      C1630   1.444       .  S
C1624      C1625   1.399   1_554  A
C1625      C1626   1.395   1_556  A
C1625      H1628   1.086       .  S
C1626      C1629   1.446   1_554  S
C1629      N1631   1.158       .  T
C1630      N1632   1.157       .  T
C1633      C1634   1.403       .  A
C1633      C1638   1.399       .  A
C1634      C1635   1.398       .  A
C1634      H1639   1.077       .  S
C1635      C1636   1.409       .  A
C1635      C1642   1.443       .  S
C1636      C1637   1.414       .  A
C1637      C1638   1.391       .  A
C1637      H1640   1.085       .  S
C1638      C1641   1.445       .  S
C1641      N1643   1.157       .  T
C1642      N1644   1.157       .  T
C1645      C1646   1.414       .  A
C1645      C1650   1.421       .  A
C1646      C1647   1.409       .  A
C1646      H1651   1.084       .  S
C1647      C1648   1.408       .  A
C1647      C1654   1.443       .  S
C1648      C1649   1.403       .  A
C1649      C1650   1.400       .  A
C1649      H1652   1.086       .  S
C1650      C1653   1.445       .  S
C1653      N1655   1.157       .  T
C1654      N1656   1.157       .  T
C1657      C1658   1.404       .  A
C1657      C1662   1.406       .  A
C1658      C1659   1.395   1_556  A
C1658      H1663   1.086       .  S
C1659      C1660   1.414       .  A
C1659      C1666   1.443       .  S
C1660      C1661   1.418   1_554  A
C1661      C1662   1.415       .  A
C1661      H1664   1.084       .  S
C1662      C1665   1.442       .  S
C1665      N1667   1.157       .  T
C1666      N1668   1.157       .  T
C1669      C1670   1.402       .  A
C1669      C1674   1.413       .  A
C1670      C1671   1.400       .  A
C1670      H1675   1.085       .  S
C1671      C1672   1.412       .  A
C1671      C1678   1.444       .  S
C1672      C1673   1.404       .  A
C1673      C1674   1.405       .  A
C1673      H1676   1.083       .  S
C1674      C1677   1.443       .  S
C1677      N1679   1.157       .  T
C1678      N1680   1.157       .  T
C1681      C1682   1.392       .  A
C1681      C1686   1.409       .  A
C1682      C1683   1.390       .  A
C1682      H1687   1.086       .  S
C1683      C1684   1.422       .  A
C1683      C1690   1.445       .  S
C1684      C1685   1.404       .  A
C1685      C1686   1.399       .  A
C1685      H1688   1.084       .  S
C1686      C1689   1.444       .  S
C1689      N1691   1.157       .  T
C1690      N1692   1.157       .  T
C1693      C1694   1.400       .  A
C1693      C1698   1.404       .  A
C1694      C1695   1.402       .  A
C1694      H1699   1.085       .  S
C1695      C1696   1.421       .  A
C1695      C1702   1.444       .  S
C1696      C1697   1.411       .  A
C1697      C1698   1.397       .  A
C1697      H1700   1.084       .  S
C1698      C1701   1.445       .  S
C1701      N1703   1.157       .  T
C1702      N1704   1.158       .  T
C1705      C1706   1.401       .  A
C1705      C1710   1.409       .  A
C1706      C1707   1.400       .  A
C1706      H1711   1.085       .  S
C1707      C1708   1.412       .  A
C1707      C1714   1.444       .  S
C1708      C1709   1.406       .  A
C1709      C1710   1.404       .  A
C1709      H1712   1.085       .  S
C1710      C1713   1.444       .  S
C1713      N1715   1.157       .  T
C1714      N1716   1.157       .  T
C1717      C1718   1.422       .  A
C1717      C1722   1.415       .  A
C1718      C1719   1.412       .  A
C1718      H1723   1.084       .  S
C1719      C1720   1.411       .  A
C1719      C1726   1.443       .  S
C1720      C1721   1.422       .  A
C1721      C1722   1.417       .  A
C1721      H1724   1.084       .  S
C1722      C1725   1.444       .  S
C1725      N1727   1.158       .  T
C1726      N1728   1.157       .  T
C1729      C1730   1.405       .  A
C1729      C1734   1.409       .  A
C1730      C1731   1.407       .  A
C1730      H1735   1.085       .  S
C1731      C1732   1.415       .  A
C1731      C1738   1.443       .  S
C1732      C1733   1.408       .  A
C1733      C1734   1.404       .  A
C1733      H1736   1.085       .  S
C1734      C1737   1.444       .  S
C1737      N1739   1.157       .  T
C1738      N1740   1.157       .  T
C1741      C1742   1.402       .  A
C1741      C1746   1.414       .  A
C1742      C1743   1.406       .  A
C1742      H1747   1.085       .  S
C1743      C1744   1.415       .  A
C1743      C1750   1.444       .  S
C1744      C1745   1.403       .  A
C1745      C1746   1.407       .  A
C1745      H1748   1.085       .  S
C1746      C1749   1.444       .  S
C1749      N1751   1.157       .  T
C1750      N1752   1.157       .  T
C1753      C1754   1.408       .  A
C1753      C1758   1.417   1_655  A
C1754      C1755   1.400   1_655  A
C1754      H1759   1.084       .  S
C1755      C1756   1.411       .  A
C1755      C1762   1.443   1_455  S
C1756      C1757   1.401       .  A
C1757      C1758   1.389       .  A
C1757      H1760   1.085       .  S
C1758      C1761   1.446       .  S
C1761      N1763   1.157       .  T
C1762      N1764   1.157       .  T
C1765      C1766   1.412       .  A
C1765      C1770   1.412       .  A
C1766      C1767   1.414       .  A
C1766      H1771   1.085       .  S
C1767      C1768   1.411       .  A
C1767      C1774   1.442       .  S
C1768      C1769   1.406       .  A
C1769      C1770   1.399       .  A
C1769      H1772   1.085       .  S
C1770      C1773   1.441       .  S
C1773      N1775   1.156       .  T
C1774      N1776   1.157       .  T
C1777      C1778   1.404       .  A
C1777      C1782   1.426       .  A
C1778      C1779   1.401       .  A
C1778      H1783   1.084       .  S
C1779      C1780   1.416       .  A
C1779      C1786   1.445       .  S
C1780      C1781   1.394       .  A
C1781      C1782   1.396       .  A
C1781      H1784   1.084       .  S
C1782      C1785   1.445       .  S
C1785      N1787   1.157       .  T
C1786      N1788   1.157       .  T
C1789      C1790   1.408       .  A
C1789      C1794   1.403       .  A
C1790      C1791   1.401       .  A
C1790      H1795   1.084       .  S
C1791      C1792   1.409       .  A
C1791      C1798   1.443       .  S
C1792      C1793   1.410       .  A
C1793      C1794   1.391       .  A
C1793      H1796   1.084   1_455  S
C1794      C1797   1.445   1_455  S
C1797      N1799   1.157       .  T
C1798      N1800   1.157       .  T
C1801      C1802   1.408       .  A
C1801      C1806   1.405       .  A
C1802      C1803   1.397       .  A
C1802      H1807   1.084       .  S
C1803      C1804   1.411       .  A
C1803      C1810   1.445       .  S
C1804      C1805   1.412       .  A
C1805      C1806   1.397       .  A
C1805      H1808   1.085       .  S
C1806      C1809   1.443       .  S
C1809      N1811   1.157       .  T
C1810      N1812   1.158       .  T
C1813      C1814   1.407       .  A
C1813      C1818   1.414       .  A
C1814      C1815   1.407       .  A
C1814      H1819   1.085       .  S
C1815      C1816   1.410       .  A
C1815      C1822   1.443       .  S
C1816      C1817   1.402       .  A
C1817      C1818   1.402       .  A
C1817      H1820   1.085       .  S
C1818      C1821   1.444       .  S
C1821      N1823   1.157       .  T
C1822      N1824   1.157       .  T
C1825      C1826   1.419       .  A
C1825      C1830   1.413       .  A
C1826      C1827   1.407       .  A
C1826      H1831   1.084       .  S
C1827      C1828   1.410       .  A
C1827      C1834   1.444       .  S
C1828      C1829   1.414       .  A
C1829      C1830   1.406       .  A
C1829      H1832   1.083       .  S
C1830      C1833   1.443       .  S
C1833      N1835   1.157       .  T
C1834      N1836   1.157       .  T
C1837      C1838   1.410       .  A
C1837      C1842   1.409       .  A
C1838      C1839   1.387       .  A
C1838      H1843   1.085       .  S
C1839      C1840   1.405       .  A
C1839      C1846   1.447       .  S
C1840      C1841   1.410       .  A
C1841      C1842   1.402       .  A
C1841      H1844   1.084       .  S
C1842      C1845   1.444       .  S
C1845      N1847   1.157       .  T
C1846      N1848   1.157       .  T
C1849      C1850   1.400       .  A
C1849      C1854   1.416       .  A
C1850      C1851   1.411       .  A
C1850      H1855   1.085       .  S
C1851      C1852   1.429       .  A
C1851      C1858   1.444       .  S
C1852      C1853   1.406       .  A
C1853      C1854   1.407       .  A
C1853      H1856   1.084       .  S
C1854      C1857   1.444       .  S
C1857      N1859   1.157       .  T
C1858      N1860   1.157       .  T
C1861      C1862   1.408   1_554  A
C1861      C1866   1.418       .  A
C1862      C1863   1.393   1_556  A
C1862      H1867   1.084       .  S
C1863      C1864   1.404       .  A
C1863      C1870   1.446   1_554  S
C1864      C1865   1.396       .  A
C1865      C1866   1.393       .  A
C1865      H1868   1.085       .  S
C1866      C1869   1.444       .  S
C1869      N1871   1.157       .  T
C1870      N1872   1.157       .  T
C1873      C1874   1.397       .  A
C1873      C1878   1.410   1_554  A
C1874      C1875   1.383   1_554  A
C1874      H1879   1.086       .  S
C1875      C1876   1.412       .  A
C1875      C1882   1.447       .  S
C1876      C1877   1.398       .  A
C1877      C1878   1.395       .  A
C1877      H1880   1.084       .  S
C1878      C1881   1.442       .  S
C1881      N1883   1.157       .  T
C1882      N1884   1.157       .  T
C1885      C1886   1.397       .  A
C1885      C1890   1.408       .  A
C1886      C1887   1.393       .  A
C1886      H1891   1.086       .  S
C1887      C1888   1.415       .  A
C1887      C1894   1.445       .  S
C1888      C1889   1.403       .  A
C1889      C1890   1.395       .  A
C1889      H1892   1.085       .  S
C1890      C1893   1.444       .  S
C1893      N1895   1.157       .  T
C1894      N1896   1.157       .  T
C1897      C1898   1.409       .  A
C1897      C1902   1.420       .  A
C1898      C1899   1.406       .  A
C1898      H1903   1.085       .  S
C1899      C1900   1.410       .  A
C1899      C1906   1.442       .  S
C1900      C1901   1.405       .  A
C1901      C1902   1.406       .  A
C1901      H1904   1.085       .  S
C1902      C1905   1.445       .  S
C1905      N1907   1.158       .  T
C1906      N1908   1.157       .  T
C1909      C1910   1.404       .  A
C1909      C1914   1.415       .  A
C1910      C1911   1.413       .  A
C1910      H1915   1.084       .  S
C1911      C1912   1.417       .  A
C1911      C1918   1.442       .  S
C1912      C1913   1.402       .  A
C1913      C1914   1.401       .  A
C1913      H1916   1.085       .  S
C1914      C1917   1.446       .  S
C1917      N1919   1.157       .  T
C1918      N1920   1.157       .  T
C1921      C1922   1.405       .  A
C1921      C1926   1.414       .  A
C1922      C1923   1.407       .  A
C1922      H1927   1.085       .  S
C1923      C1924   1.412       .  A
C1923      C1930   1.443       .  S
C1924      C1925   1.404       .  A
C1925      C1926   1.406       .  A
C1925      H1928   1.085       .  S
C1926      C1929   1.444       .  S
C1929      N1931   1.157       .  T
C1930      N1932   1.157       .  T
C1933      C1934   1.402       .  A
C1933      C1938   1.413       .  A
C1934      C1935   1.403       .  A
C1934      H1939   1.085       .  S
C1935      C1936   1.411       .  A
C1935      C1942   1.442       .  S
C1936      C1937   1.408       .  A
C1937      C1938   1.413       .  A
C1937      H1940   1.084       .  S
C1938      C1941   1.443       .  S
C1941      N1943   1.157       .  T
C1942      N1944   1.156       .  T
C1945      C1946   1.410       .  A
C1945      C1950   1.418       .  A
C1946      C1947   1.419   1_655  A
C1946      H1951   1.084       .  S
C1947      C1948   1.418       .  A
C1947      C1954   1.443       .  S
C1948      C1949   1.411       .  A
C1949      C1950   1.422   1_455  A
C1949      H1952   1.084       .  S
C1950      C1953   1.442       .  S
C1953      N1955   1.157       .  T
C1954      N1956   1.157       .  T
C1957      C1958   1.405       .  A
C1957      C1962   1.407       .  A
C1958      C1959   1.389       .  A
C1958      H1963   1.081       .  S
C1959      C1960   1.405       .  A
C1959      C1966   1.446       .  S
C1960      C1961   1.406       .  A
C1961      C1962   1.395       .  A
C1961      H1964   1.084       .  S
C1962      C1965   1.444       .  S
C1965      N1967   1.157       .  T
C1966      N1968   1.157       .  T
C1969      C1970   1.407       .  A
C1969      C1974   1.412       .  A
C1970      C1971   1.401       .  A
C1970      H1975   1.085       .  S
C1971      C1972   1.419       .  A
C1971      C1978   1.445       .  S
C1972      C1973   1.419       .  A
C1973      C1974   1.420       .  A
C1973      H1976   1.084       .  S
C1974      C1977   1.443       .  S
C1977      N1979   1.157       .  T
C1978      N1980   1.157       .  T
C1981      C1982   1.407   1_554  A
C1981      C1986   1.401       .  A
C1982      C1983   1.400   1_556  A
C1982      H1987   1.085       .  S
C1983      C1984   1.414       .  A
C1983      C1990   1.444   1_554  S
C1984      C1985   1.417       .  A
C1985      C1986   1.400       .  A
C1985      H1988   1.084       .  S
C1986      C1989   1.444       .  S
C1989      N1991   1.157       .  T
C1990      N1992   1.157       .  T
C1993      C1994   1.413       .  A
C1993      C1998   1.418       .  A
C1994      C1995   1.421       .  A
C1994      H1999   1.084       .  S
C1995      C1996   1.418       .  A
C1995      C2002   1.442       .  S
C1996      C1997   1.409       .  A
C1997      C1998   1.415       .  A
C1997      H2000   1.085       .  S
C1998      C2001   1.443       .  S
C2001      N2003   1.157       .  T
C2002      N2004   1.157       .  T
C2005      C2006   1.407       .  A
C2005      C2010   1.417       .  A
C2006      C2007   1.398       .  A
C2006      H2011   1.084       .  S
C2007      C2008   1.411       .  A
C2007      C2014   1.445       .  S
C2008      C2009   1.402       .  A
C2009      C2010   1.396       .  A
C2009      H2012   1.085       .  S
C2010      C2013   1.443       .  S
C2013      N2015   1.157       .  T
C2014      N2016   1.157       .  T
C2017      C2018   1.399       .  A
C2017      C2022   1.404       .  A
C2018      C2019   1.401       .  A
C2018      H2023   1.085       .  S
C2019      C2020   1.421       .  A
C2019      C2026   1.444       .  S
C2020      C2021   1.410       .  A
C2021      C2022   1.396       .  A
C2021      H2024   1.084       .  S
C2022      C2025   1.445       .  S
C2025      N2027   1.157       .  T
C2026      N2028   1.157       .  T
C2029      C2030   1.404       .  A
C2029      C2034   1.419       .  A
C2030      C2031   1.395       .  A
C2030      H2035   1.085       .  S
C2031      C2032   1.410       .  A
C2031      C2038   1.443       .  S
C2032      C2033   1.402       .  A
C2033      C2034   1.409       .  A
C2033      H2036   1.085   1_556  S
C2034      C2037   1.443   1_556  S
C2037      N2039   1.157       .  T
C2038      N2040   1.157       .  T
C2041      C2042   1.415       .  A
C2041      C2046   1.413       .  A
C2042      C2043   1.403       .  A
C2042      H2047   1.084       .  S
C2043      C2044   1.413       .  A
C2043      C2050   1.444       .  S
C2044      C2045   1.417       .  A
C2045      C2046   1.407       .  A
C2045      H2048   1.084       .  S
C2046      C2049   1.444   1_554  S
C2049      N2051   1.158       .  T
C2050      N2052   1.157       .  T
C2053      C2054   1.412   1_545  A
C2053      C2058   1.412       .  A
C2054      C2055   1.420   1_665  A
C2054      H2059   1.084       .  S
C2055      C2056   1.416       .  A
C2055      C2062   1.441   1_545  S
C2056      C2057   1.409   1_455  A
C2057      C2058   1.402       .  A
C2057      H2060   1.084   1_655  S
C2058      C2061   1.446       .  S
C2061      N2063   1.157       .  T
C2062      N2064   1.157       .  T
C2065      C2066   1.399       .  A
C2065      C2070   1.412       .  A
C2066      C2067   1.390       .  A
C2066      H2071   1.085       .  S
C2067      C2068   1.419   1_565  A
C2067      C2074   1.445   1_565  S
C2068      C2069   1.400       .  A
C2069      C2070   1.391   1_545  A
C2069      H2072   1.085       .  S
C2070      C2073   1.443       .  S
C2073      N2075   1.157       .  T
C2074      N2076   1.157       .  T
C2077      C2078   1.393       .  A
C2077      C2082   1.420       .  A
C2078      C2079   1.403       .  A
C2078      H2083   1.086       .  S
C2079      C2080   1.433       .  A
C2079      C2086   1.444       .  S
C2080      C2081   1.404       .  A
C2081      C2082   1.406       .  A
C2081      H2084   1.084       .  S
C2082      C2085   1.445       .  S
C2085      N2087   1.157       .  T
C2086      N2088   1.157       .  T
C2089      C2090   1.401       .  A
C2089      C2094   1.405       .  A
C2090      C2091   1.398       .  A
C2090      H2095   1.085       .  S
C2091      C2092   1.411       .  A
C2091      C2098   1.444       .  S
C2092      C2093   1.405       .  A
C2093      C2094   1.394       .  A
C2093      H2096   1.085       .  S
C2094      C2097   1.445       .  S
C2097      N2099   1.157       .  T
C2098      N2100   1.157       .  T
C2101      C2102   1.408       .  A
C2101      C2106   1.417       .  A
C2102      C2103   1.415       .  A
C2102      H2107   1.085       .  S
C2103      C2104   1.419       .  A
C2103      C2110   1.444       .  S
C2104      C2105   1.410   1_565  A
C2105      C2106   1.420   1_545  A
C2105      H2108   1.084       .  S
C2106      C2109   1.442   1_565  S
C2109      N2111   1.157       .  T
C2110      N2112   1.157       .  T
C2113      C2114   1.406       .  A
C2113      C2118   1.416       .  A
C2114      C2115   1.391       .  A
C2114      H2119   1.085       .  S
C2115      C2116   1.412       .  A
C2115      C2122   1.445       .  S
C2116      C2117   1.403       .  A
C2117      C2118   1.394       .  A
C2117      H2120   1.085       .  S
C2118      C2121   1.444       .  S
C2121      N2123   1.157       .  T
C2122      N2124   1.157       .  T
C2125      C2126   1.406       .  A
C2125      C2130   1.403       .  A
C2126      C2127   1.403       .  A
C2126      H2131   1.086       .  S
C2127      C2128   1.415       .  A
C2127      C2134   1.443       .  S
C2128      C2129   1.416       .  A
C2129      C2130   1.397       .  A
C2129      H2132   1.084       .  S
C2130      C2133   1.445       .  S
C2133      N2135   1.157       .  T
C2134      N2136   1.157       .  T
C2137      C2138   1.408       .  A
C2137      C2142   1.414       .  A
C2138      C2139   1.402       .  A
C2138      H2143   1.085       .  S
C2139      C2140   1.406       .  A
C2139      C2146   1.443       .  S
C2140      C2141   1.403       .  A
C2141      C2142   1.402       .  A
C2141      H2144   1.085       .  S
C2142      C2145   1.444       .  S
C2145      N2147   1.157       .  T
C2146      N2148   1.157   1_565  T
C2149      C2150   1.402       .  A
C2149      C2154   1.422       .  A
C2150      C2151   1.412       .  A
C2150      H2155   1.085       .  S
C2151      C2152   1.428       .  A
C2151      C2158   1.444       .  S
C2152      C2153   1.403       .  A
C2153      C2154   1.402       .  A
C2153      H2156   1.085       .  S
C2154      C2157   1.445       .  S
C2157      N2159   1.157       .  T
C2158      N2160   1.157       .  T
C2161      C2162   1.403       .  A
C2161      C2166   1.408       .  A
C2162      C2163   1.402       .  A
C2162      H2167   1.085       .  S
C2163      C2164   1.411       .  A
C2163      C2170   1.444       .  S
C2164      C2165   1.402       .  A
C2165      C2166   1.399       .  A
C2165      H2168   1.085       .  S
C2166      C2169   1.444       .  S
C2169      N2171   1.157       .  T
C2170      N2172   1.157       .  T
C2173      C2174   1.405       .  A
C2173      C2178   1.415       .  A
C2174      C2175   1.405       .  A
C2174      H2179   1.085       .  S
C2175      C2176   1.411       .  A
C2175      C2182   1.444       .  S
C2176      C2177   1.402       .  A
C2177      C2178   1.404       .  A
C2177      H2180   1.085       .  S
C2178      C2181   1.444       .  S
C2181      N2183   1.157       .  T
C2182      N2184   1.157       .  T
C2185      C2186   1.414       .  A
C2185      C2190   1.411       .  A
C2186      C2187   1.422       .  A
C2186      H2191   1.085   1_655  S
C2187      C2188   1.417       .  A
C2187      C2194   1.442       .  S
C2188      C2189   1.415       .  A
C2189      C2190   1.413       .  A
C2189      H2192   1.085       .  S
C2190      C2193   1.443       .  S
C2193      N2195   1.157       .  T
C2194      N2196   1.157   1_655  T
C2197      C2198   1.400       .  A
C2197      C2202   1.408       .  A
C2198      C2199   1.389       .  A
C2198      H2203   1.083       .  S
C2199      C2200   1.416       .  A
C2199      C2206   1.446       .  S
C2200      C2201   1.404   1_655  A
C2201      C2202   1.392   1_455  A
C2201      H2204   1.084       .  S
C2202      C2205   1.443   1_655  S
C2205      N2207   1.157       .  T
C2206      N2208   1.157       .  T
C2209      C2210   1.404       .  A
C2209      C2214   1.409       .  A
C2210      C2211   1.395       .  A
C2210      H2215   1.086       .  S
C2211      C2212   1.415       .  A
C2211      C2218   1.443       .  S
C2212      C2213   1.407       .  A
C2213      C2214   1.391       .  A
C2213      H2216   1.084       .  S
C2214      C2217   1.444       .  S
C2217      N2219   1.157       .  T
C2218      N2220   1.157       .  T
C2221      C2222   1.406       .  A
C2221      C2226   1.416       .  A
C2222      C2223   1.411       .  A
C2222      H2227   1.085       .  S
C2223      C2224   1.418       .  A
C2223      C2230   1.444       .  S
C2224      C2225   1.401       .  A
C2225      C2226   1.401       .  A
C2225      H2228   1.085       .  S
C2226      C2229   1.443       .  S
C2229      N2231   1.157       .  T
C2230      N2232   1.157       .  T
C2233      C2234   1.403       .  A
C2233      C2238   1.408       .  A
C2234      C2235   1.395       .  A
C2234      H2239   1.085       .  S
C2235      C2236   1.414       .  A
C2235      C2242   1.445       .  S
C2236      C2237   1.404       .  A
C2237      C2238   1.391       .  A
C2237      H2240   1.085       .  S
C2238      C2241   1.445       .  S
C2241      N2243   1.157       .  T
C2242      N2244   1.157       .  T
C2245      C2246   1.410   1_455  A
C2245      C2250   1.419   1_565  A
C2246      C2247   1.424   1_565  A
C2246      H2251   1.084       .  S
C2247      C2248   1.421       .  A
C2247      C2254   1.442       .  S
C2248      C2249   1.405   1_655  A
C2249      C2250   1.413       .  A
C2249      H2252   1.085       .  S
C2250      C2253   1.441   1_545  S
C2253      N2255   1.157       .  T
C2254      N2256   1.157       .  T
C2257      C2258   1.401   1_565  A
C2257      C2262   1.400       .  A
C2258      C2259   1.391       .  A
C2258      H2263   1.086       .  S
C2259      C2260   1.415       .  A
C2259      C2266   1.441       .  S
C2260      C2261   1.410       .  A
C2261      C2262   1.392   1_545  A
C2261      H2264   1.085       .  S
C2262      C2265   1.442       .  S
C2265      N2267   1.157       .  T
C2266      N2268   1.156       .  T
C2269      C2270   1.406   1_655  A
C2269      C2274   1.414       .  A
C2270      C2271   1.399   1_455  A
C2270      H2275   1.085       .  S
C2271      C2272   1.411       .  A
C2271      C2278   1.445   1_655  S
C2272      C2273   1.402       .  A
C2273      C2274   1.393       .  A
C2273      H2276   1.085       .  S
C2274      C2277   1.444       .  S
C2277      N2279   1.157       .  T
C2278      N2280   1.157       .  T
C2281      C2282   1.399       .  A
C2281      C2286   1.403       .  A
C2282      C2283   1.395       .  A
C2282      H2287   1.086       .  S
C2283      C2284   1.418       .  A
C2283      C2290   1.443       .  S
C2284      C2285   1.409       .  A
C2285      C2286   1.397       .  A
C2285      H2288   1.085       .  S
C2286      C2289   1.444       .  S
C2289      N2291   1.157       .  T
C2290      N2292   1.157       .  T
C2293      C2294   1.410       .  A
C2293      C2298   1.418       .  A
C2294      C2295   1.407       .  A
C2294      H2299   1.084       .  S
C2295      C2296   1.411       .  A
C2295      C2302   1.443       .  S
C2296      C2297   1.405       .  A
C2297      C2298   1.406       .  A
C2297      H2300   1.085       .  S
C2298      C2301   1.443       .  S
C2301      N2303   1.157       .  T
C2302      N2304   1.157       .  T
C2305      C2306   1.408       .  A
C2305      C2310   1.408       .  A
C2306      C2307   1.401       .  A
C2306      H2311   1.085       .  S
C2307      C2308   1.411       .  A
C2307      C2314   1.443       .  S
C2308      C2309   1.415       .  A
C2309      C2310   1.410       .  A
C2309      H2312   1.084       .  S
C2310      C2313   1.444       .  S
C2313      N2315   1.157       .  T
C2314      N2316   1.157       .  T
C2317      C2318   1.403       .  A
C2317      C2322   1.411       .  A
C2318      C2319   1.389       .  A
C2318      H2323   1.085       .  S
C2319      C2320   1.415       .  A
C2319      C2326   1.443       .  S
C2320      C2321   1.408       .  A
C2321      C2322   1.391       .  A
C2321      H2324   1.085       .  S
C2322      C2325   1.445       .  S
C2325      N2327   1.157       .  T
C2326      N2328   1.157       .  T
C2329      C2330   1.406       .  A
C2329      C2334   1.409       .  A
C2330      C2331   1.396       .  A
C2330      H2335   1.085       .  S
C2331      C2332   1.408       .  A
C2331      C2338   1.443       .  S
C2332      C2333   1.405       .  A
C2333      C2334   1.390       .  A
C2333      H2336   1.084       .  S
C2334      C2337   1.447       .  S
C2337      N2339   1.158       .  T
C2338      N2340   1.157       .  T
C2341      C2342   1.414       .  A
C2341      C2346   1.416       .  A
C2342      C2343   1.426       .  A
C2342      H2347   1.084       .  S
C2343      C2344   1.418   1_565  A
C2343      C2350   1.441   1_565  S
C2344      C2345   1.410   1_545  A
C2345      C2346   1.407       .  A
C2345      H2348   1.085       .  S
C2346      C2349   1.446       .  S
C2349      N2351   1.158       .  T
C2350      N2352   1.157   1_554  T
C2353      C2354   1.417       .  A
C2353      C2358   1.409       .  A
C2354      C2355   1.405       .  A
C2354      H2359   1.085       .  S
C2355      C2356   1.410       .  A
C2355      C2362   1.443       .  S
C2356      C2357   1.418       .  A
C2357      C2358   1.408       .  A
C2357      H2360   1.084       .  S
C2358      C2361   1.443       .  S
C2361      N2363   1.157       .  T
C2362      N2364   1.157       .  T
C2365      C2366   1.398       .  A
C2365      C2370   1.407       .  A
C2366      C2367   1.390       .  A
C2366      H2371   1.084       .  S
C2367      C2368   1.414       .  A
C2367      C2374   1.444       .  S
C2368      C2369   1.407       .  A
C2369      C2370   1.397       .  A
C2369      H2372   1.085       .  S
C2370      C2373   1.445       .  S
C2373      N2375   1.157       .  T
C2374      N2376   1.157   1_554  T
C2377      C2378   1.416       .  A
C2377      C2382   1.430       .  A
C2378      C2379   1.426       .  A
C2378      H2383   1.084       .  S
C2379      C2380   1.418       .  A
C2379      C2386   1.443       .  S
C2380      C2381   1.402       .  A
C2381      C2382   1.412       .  A
C2381      H2384   1.085       .  S
C2382      C2385   1.443       .  S
C2385      N2387   1.157       .  T
C2386      N2388   1.157       .  T
C2389      C2390   1.411       .  A
C2389      C2394   1.405       .  A
C2390      C2391   1.394       .  A
C2390      H2395   1.086       .  S
C2391      C2392   1.409       .  A
C2391      C2398   1.446   1_556  S
C2392      C2393   1.407       .  A
C2393      C2394   1.389       .  A
C2393      H2396   1.084       .  S
C2394      C2397   1.444       .  S
C2397      N2399   1.157       .  T
C2398      N2400   1.158       .  T
C2401      C2402   1.410       .  A
C2401      C2406   1.399       .  A
C2402      C2403   1.400   1_554  A
C2402      H2407   1.085       .  S
C2403      C2404   1.404       .  A
C2403      C2410   1.443       .  S
C2404      C2405   1.404   1_556  A
C2405      C2406   1.385       .  A
C2405      H2408   1.078       .  S
C2406      C2409   1.445       .  S
C2409      N2411   1.157       .  T
C2410      N2412   1.157       .  T
C2413      C2414   1.401       .  A
C2413      C2418   1.418       .  A
C2414      C2415   1.386       .  A
C2414      H2419   1.085       .  S
C2415      C2416   1.409       .  A
C2415      C2422   1.444       .  S
C2416      C2417   1.399       .  A
C2417      C2418   1.401       .  A
C2417      H2420   1.085       .  S
C2418      C2421   1.445       .  S
C2421      N2423   1.158       .  T
C2422      N2424   1.157       .  T
C2425      C2426   1.403       .  A
C2425      C2430   1.417       .  A
C2426      C2427   1.405       .  A
C2426      H2431   1.085       .  S
C2427      C2428   1.415       .  A
C2427      C2434   1.444       .  S
C2428      C2429   1.402       .  A
C2429      C2430   1.406       .  A
C2429      H2432   1.085       .  S
C2430      C2433   1.444       .  S
C2433      N2435   1.157       .  T
C2434      N2436   1.157       .  T
C2437      C2438   1.416   1_556  A
C2437      C2442   1.409       .  A
C2438      C2439   1.406       .  A
C2438      H2443   1.085       .  S
C2439      C2440   1.411       .  A
C2439      C2446   1.443       .  S
C2440      C2441   1.420       .  A
C2441      C2442   1.411   1_554  A
C2441      H2444   1.084   1_554  S
C2442      C2445   1.443       .  S
C2445      N2447   1.157       .  T
C2446      N2448   1.157       .  T
