geometry optimzed in LAMMPS
_audit_creation_date              2020-11-30 
_audit_creation_method            'lammps2cif' 
_symmetry_space_group_name_H-M    'P1' 
_symmetry_Int_Tables_number       1 
_symmetry_cell_setting            triclinic 
loop_ 
_symmetry_equiv_pos_as_xyz 
  x,y,z 
_cell_length_a                    33.36329693 
_cell_length_b                    33.58234568574777 
_cell_length_c                    61.89591778818405 
_cell_angle_alpha                 89.43419008867882 
_cell_angle_beta                  89.40332006445486 
_cell_angle_gamma                 89.48838417987587 
loop_ 
_atom_site_label 
_atom_site_type_symbol 
_atom_site_fract_x 
_atom_site_fract_y 
_atom_site_fract_z 
_atom_site_charge 
In1        In  0.38374866  0.12792117  0.47929748     1.36900
C2          C  0.46344660  0.12623853  0.47881559     0.78800
O3          O  0.39349937  0.09193146  0.44926520    -0.59700
O4          O  0.33529490  0.09137407  0.46282753    -0.50600
C5          C  0.36037925  0.09220190  0.51605742     0.71400
O6          O  0.39236826  0.08371658  0.50604551    -0.45500
C7          C  0.37170529  0.20748342  0.48046587     0.76100
O8          O  0.44254546  0.11138518  0.49382210    -0.57300
O9          O  0.36291994  0.18730589  0.46410592    -0.47400
O10         O  0.44371560  0.14209785  0.46368732    -0.53800
C11         C  0.35908455  0.07709385  0.44888246     0.86300
O12         O  0.33885236  0.11833253  0.50678895    -0.55600
O13         O  0.38340419  0.18681958  0.49623583    -0.58900
In14       In  0.58665783  0.12521111  0.48294933     1.36900
C15         C  0.50721386  0.12538242  0.47952834     0.78800
O16         O  0.58472831  0.18515426  0.49773675    -0.59700
O17         O  0.61395640  0.18118405  0.46736389    -0.50600
C18         C  0.60389525  0.09517367  0.52167357     0.71400
O19         O  0.57297064  0.08603183  0.51130500    -0.45500
C20         C  0.61775807  0.07169805  0.45555501     0.76100
O21         O  0.52548413  0.11045293  0.49535408    -0.57300
O22         O  0.63552904  0.08225376  0.47235250    -0.47400
O23         O  0.52950933  0.13976593  0.46491084    -0.53800
C24         C  0.60160512  0.20332127  0.48241556     0.86300
O25         O  0.62722892  0.11884969  0.51182780    -0.55600
O26         O  0.58591441  0.09075314  0.45187407    -0.58900
In27       In  0.38736803  0.33012743  0.48204590     1.36900
C28         C  0.46667489  0.32598447  0.48100238     0.78800
O29         O  0.38436821  0.26944770  0.49751463    -0.59700
O30         O  0.36485193  0.27413223  0.46520090    -0.50600
C31         C  0.36859980  0.35949109  0.52104862     0.71400
O32         O  0.39963407  0.36833768  0.51043061    -0.45500
C33         C  0.36490245  0.38387121  0.45145461     0.76100
O34         O  0.44729058  0.34848891  0.49348987    -0.57300
O35         O  0.33978096  0.36709067  0.46386971    -0.47400
O36         O  0.44559170  0.30523638  0.46869998    -0.53800
C37         C  0.37241780  0.25148444  0.48108872     0.86300
O38         O  0.34497553  0.33686657  0.51117535    -0.55600
O39         O  0.40012859  0.37131762  0.45390847    -0.58900
In40       In  0.58968517  0.32546028  0.48175542     1.36900
C41         C  0.51032408  0.32484937  0.48103492     0.78800
O42         O  0.57941603  0.36403367  0.45280929    -0.59700
O43         O  0.63864702  0.36142896  0.46444466    -0.50600
C44         C  0.61154698  0.35572752  0.51942923     0.71400
O45         O  0.58270945  0.36926412  0.50851576    -0.45500
C46         C  0.60248167  0.24700190  0.48210267     0.76100
O47         O  0.52996241  0.34344186  0.49487395    -0.57300
O48         O  0.61384879  0.26827318  0.46625909    -0.47400
O49         O  0.53116863  0.30603122  0.46736760    -0.53800
C50         C  0.61428348  0.37767852  0.45153167     0.86300
O51         O  0.63100271  0.32788039  0.51047006    -0.55600
O52         O  0.58792953  0.26616826  0.49767965    -0.58900
In53       In  0.08399808  0.82932791  0.27893050     1.36900
C54         C  0.08051388  0.75066881  0.28108173     0.78800
O55         O  0.11721778  0.87815067  0.29652716    -0.59700
O56         O  0.12311851  0.81864421  0.30743200    -0.50600
C57         C  0.11524185  0.85177333  0.24133384     0.71400
O58         O  0.12560520  0.82051215  0.25128555    -0.45500
C59         C  0.00631261  0.84452281  0.27734315     0.76100
O60         O  0.05774261  0.77250000  0.29235674    -0.57300
O61         O  0.02656158  0.85349414  0.29371950    -0.47400
O62         O  0.10473111  0.76900311  0.26890997    -0.53800
C63         C  0.13450300  0.85399633  0.30913467     0.86300
O64         O  0.08982850  0.87312523  0.25114939    -0.55600
O65         O  0.02621165  0.83032875  0.26182521    -0.58900
In66       In  0.88456534  0.83199447  0.27630585     1.36900
C67         C  0.89179032  0.75409974  0.28047970     0.78800
O68         O  0.94441615  0.83364889  0.26036503    -0.59700
O69         O  0.94046001  0.85489672  0.29248692    -0.50600
C70         C  0.84932729  0.85280595  0.23942252     0.71400
O71         O  0.84377272  0.82011551  0.24902853    -0.45500
C72         C  0.83059956  0.85189776  0.30643729     0.76100
O73         O  0.88467976  0.77099567  0.26265209    -0.57300
O74         O  0.85371448  0.87777401  0.29825752    -0.47400
O75         O  0.89723494  0.77712381  0.29612328    -0.53800
C76         C  0.96263294  0.84579343  0.27664110     0.86300
O77         O  0.87117256  0.87680719  0.24946662    -0.55600
O78         O  0.83633618  0.81731776  0.29948665    -0.58900
In79       In  0.88161857  0.63291317  0.28648796     1.36900
C80         C  0.89091378  0.71101513  0.28286657     0.78800
O81         O  0.83966143  0.64067650  0.31465535    -0.59700
O82         O  0.84793438  0.58208643  0.30304287    -0.50600
C83         C  0.83896677  0.62194207  0.25115250     0.71400
O84         O  0.87059192  0.60204077  0.25482986    -0.45500
C85         C  0.95948093  0.61276351  0.28808510     0.76100
O86         O  0.88690775  0.68878628  0.26688679    -0.57300
O87         O  0.93981595  0.62293020  0.30465973    -0.47400
O88         O  0.89169168  0.69335784  0.30089664    -0.53800
C89         C  0.82862002  0.60496275  0.31555933     0.86300
O90         O  0.82819821  0.64504207  0.26607979    -0.55600
O91         O  0.93843086  0.60813107  0.27158031    -0.58900
In92       In  0.08246370  0.62825712  0.28382496     1.36900
C93         C  0.07990312  0.70729653  0.28207680     0.78800
O94         O  0.02261867  0.61272664  0.26941854    -0.59700
O95         O  0.02554996  0.61582096  0.30340946    -0.50600
C96         C  0.11268486  0.60822199  0.24512146     0.71400
O97         O  0.11463333  0.64261147  0.25295794    -0.45500
C98         C  0.13810156  0.60593497  0.31310698     0.76100
O99         O  0.05731410  0.68772644  0.29460704    -0.57300
O100        O  0.12257445  0.58165629  0.30032891    -0.47400
O101        O  0.10293354  0.68658648  0.27047194    -0.53800
C102        C  0.00368065  0.61211819  0.28709570     0.86300
O103        O  0.09511011  0.58309208  0.25723231    -0.55600
O104        O  0.12284194  0.64018430  0.31208746    -0.58900
C105        C  0.29022286  0.86835492  0.35796950     0.87700
C106        C  0.31060819  0.87278286  0.33553445    -0.52600
C107        C  0.29870426  0.84509034  0.32090457     0.10600
C108        C  0.26732415  0.81597520  0.33003777     0.21500
C109        C  0.24496521  0.87035961  0.35323687    -0.53300
C110        C  0.23322283  0.84267347  0.33856123     0.10700
C111        C  0.29821358  0.82464843  0.36483437    -0.52800
C112        C  0.28616086  0.79690039  0.35032979     0.11300
H113        H  0.33283558  0.89533872  0.33188531     0.15800
H114        H  0.25713062  0.79471210  0.31774292     0.01500
H115        H  0.22428543  0.89106499  0.36091277     0.16100
H116        H  0.31207763  0.81645258  0.38010020     0.15900
C117        C  0.29925685  0.61557769  0.36057053     0.87700
C118        C  0.29994336  0.66172266  0.36169380    -0.52600
C119        C  0.28048138  0.68065592  0.34508003     0.10600
C120        C  0.26250451  0.65164300  0.32892906     0.21500
C121        C  0.25418325  0.60532695  0.35916874    -0.53300
C122        C  0.23515771  0.62439002  0.34240167     0.10700
C123        C  0.31689135  0.60603069  0.33805439    -0.52800
C124        C  0.29770271  0.62524569  0.32142315     0.11300
H125        H  0.31454138  0.67754482  0.37455796     0.15800
H126        H  0.24663309  0.66689943  0.31542656     0.01500
H127        H  0.23870822  0.58619766  0.37069268     0.16100
H128        H  0.34320747  0.58731156  0.33581361     0.15900
C129        C  0.61122139  0.91863732  0.40298695     0.87700
C130        C  0.56518153  0.92050070  0.40224251    -0.52600
C131        C  0.54725737  0.94108803  0.41873475     0.10600
C132        C  0.57756846  0.95757266  0.43464352     0.21500
C133        C  0.62401680  0.96264436  0.40399528    -0.53300
C134        C  0.60644810  0.98267516  0.42084533     0.10700
C135        C  0.62042012  0.90094315  0.42547786    -0.52800
C136        C  0.60236892  0.92141192  0.44205459     0.11300
H137        H  0.54876014  0.90584708  0.38957947     0.15800
H138        H  0.56325318  0.97431567  0.44813087     0.01500
H139        H  0.64432074  0.97662059  0.39245044     0.16100
H140        H  0.63719306  0.87353888  0.42778758     0.15900
C141        C  0.36444300  0.92165408  0.39702551     0.87700
C142        C  0.35814912  0.90137850  0.41915037    -0.52600
C143        C  0.38034258  0.91759929  0.43533999     0.10600
C144        C  0.40671095  0.95258985  0.42777353     0.21500
C145        C  0.35501433  0.96625777  0.40083378    -0.53300
C146        C  0.37731926  0.98228530  0.41711689     0.10700
C147        C  0.40989572  0.92008400  0.39323285    -0.52800
C148        C  0.43225927  0.93593225  0.40908105     0.11300
H149        H  0.33890049  0.87582057  0.42134793     0.15800
H150        H  0.42445222  0.96587630  0.44090827     0.01500
H151        H  0.33398542  0.98365452  0.39117240     0.16100
H152        H  0.42369904  0.90688509  0.37891510     0.15900
C153        C  0.35533458  0.53936980  0.39945324     0.87700
C154        C  0.39954590  0.54657587  0.39289718    -0.52600
C155        C  0.42713528  0.53225816  0.40726972     0.10600
C156        C  0.40728076  0.51185663  0.42710557     0.21500
C157        C  0.35264324  0.49377485  0.40349474    -0.53300
C158        C  0.37995140  0.47962088  0.41817739     0.10700
C159        C  0.35084901  0.55734976  0.42217926    -0.52800
C160        C  0.37822900  0.54283627  0.43663235     0.11300
H161        H  0.40818162  0.56182859  0.37800069     0.15800
H162        H  0.42808810  0.49961128  0.43933780     0.01500
H163        H  0.33104407  0.47473266  0.39569140     0.16100
H164        H  0.32851397  0.57987415  0.42618963     0.15900
C165        C  0.61180579  0.53623519  0.40128503     0.87700
C166        C  0.62029734  0.55642747  0.42312430    -0.52600
C167        C  0.59797469  0.54149734  0.43995804     0.10600
C168        C  0.56993750  0.50787589  0.43345187     0.21500
C169        C  0.61917327  0.49131265  0.40572098    -0.53300
C170        C  0.59695549  0.47672741  0.42264936     0.10700
C171        C  0.56571285  0.54024565  0.39832655    -0.52800
C172        C  0.54378351  0.52523835  0.41539522     0.11300
H173        H  0.64100531  0.58088721  0.42483433     0.15800
H174        H  0.55224901  0.49545270  0.44725387     0.01500
H175        H  0.63887971  0.47270437  0.39601526     0.16100
H176        H  0.55222414  0.55357718  0.38413038     0.15900
C177        C  0.67801661  0.86183062  0.36019792     0.87700
C178        C  0.67148731  0.81802315  0.36715932    -0.52600
C179        C  0.68159126  0.79064905  0.35180678     0.10600
C180        C  0.69748662  0.81004916  0.33082945     0.21500
C181        C  0.72240997  0.86377026  0.35308911    -0.53300
C182        C  0.73233868  0.83655489  0.33758922     0.10700
C183        C  0.65444953  0.86684711  0.33892759    -0.52800
C184        C  0.66467301  0.83933917  0.32363770     0.11300
H185        H  0.65952746  0.80953164  0.38290916     0.15800
H186        H  0.70601317  0.78909212  0.31785767     0.01500
H187        H  0.74378582  0.88459098  0.35965215     0.16100
H188        H  0.63118414  0.88935034  0.33649628     0.15900
C189        C  0.66216807  0.61057634  0.35937115     0.87700
C190        C  0.64698279  0.60122894  0.33652659    -0.52600
C191        C  0.66810549  0.62012565  0.32037592     0.10600
C192        C  0.70259732  0.64566555  0.32858266     0.21500
C193        C  0.70729145  0.59944296  0.35899904    -0.53300
C194        C  0.72824267  0.61790929  0.34267352     0.10700
C195        C  0.66150071  0.65662089  0.36044349    -0.52800
C196        C  0.68303630  0.67503770  0.34435741     0.11300
H197        H  0.62052821  0.58363341  0.33368361     0.15800
H198        H  0.72005213  0.66056034  0.31544767     0.01500
H199        H  0.72149808  0.58055136  0.37107798     0.16100
H200        H  0.64532936  0.67283131  0.37293649     0.15900
In201      In  0.88514915  0.33087760  0.72693081     1.36900
C202        C  0.89719153  0.25314173  0.72646704     0.78800
O203        O  0.83066976  0.31446291  0.70921085    -0.59700
O204        O  0.85023897  0.37358486  0.70442240    -0.50600
C205        C  0.85153112  0.35241393  0.76416976     0.71400
O206        O  0.85152051  0.31722466  0.75734664    -0.45500
C207        C  0.96278545  0.35047539  0.72476174     0.76100
O208        O  0.89087747  0.27241933  0.74350556    -0.57300
O209        O  0.94234443  0.34607079  0.70790468    -0.47400
O210        O  0.89901619  0.27379762  0.70934059    -0.53800
C211        C  0.82381631  0.34784236  0.70064741     0.86300
O212        O  0.86789695  0.37743983  0.75155225    -0.55600
O213        O  0.94272261  0.34885202  0.74202668    -0.58900
In214      In  0.08651244  0.34091266  0.72766754     1.36900
C215        C  0.09095275  0.26213406  0.72622724     0.78800
O216        O  0.02554890  0.34875391  0.74257737    -0.59700
O217        O  0.02922591  0.35373253  0.70854228    -0.50600
C218        C  0.11130147  0.36363829  0.76651543     0.71400
O219        O  0.11020931  0.32795512  0.76050396    -0.45500
C220        C  0.14361196  0.36451357  0.69941640     0.76100
O221        O  0.06578085  0.28178909  0.71530118    -0.57300
O222        O  0.13226774  0.32927599  0.70187802    -0.47400
O223        O  0.11330938  0.28267096  0.73794324    -0.53800
C224        C  0.00690385  0.35239085  0.72512460     0.86300
O225        O  0.09898510  0.38862333  0.75261302    -0.55600
O226        O  0.12322038  0.38936707  0.71015811    -0.58900
In227      In  0.09881912  0.13955783  0.72666097     1.36900
C228        C  0.09417884  0.21878161  0.72561002     0.78800
O229        O  0.13458378  0.14359225  0.69554508    -0.59700
O230        O  0.13968860  0.09036321  0.71367319    -0.50600
C231        C  0.12592110  0.12311722  0.76603307     0.71400
O232        O  0.13842266  0.15167200  0.75449187    -0.45500
C233        C  0.02096138  0.12174078  0.72654424     0.76100
O234        O  0.07049343  0.19733450  0.71525843    -0.57300
O235        O  0.04236801  0.11859210  0.70967271    -0.47400
O236        O  0.12082126  0.19994599  0.73576362    -0.53800
C237        C  0.15205399  0.11049823  0.69771002     0.86300
O238        O  0.10072050  0.10113479  0.75694649    -0.55600
O239        O  0.03994212  0.13083354  0.74318572    -0.58900
In240      In  0.89756819  0.13128928  0.72893019     1.36900
C241        C  0.89972283  0.20985723  0.72692669     0.78800
O242        O  0.95776006  0.12681077  0.74416482    -0.59700
O243        O  0.95534827  0.11463759  0.71076359    -0.50600
C244        C  0.86301270  0.11124042  0.76643437     0.71400
O245        O  0.85542134  0.14293801  0.75618931    -0.45500
C246        C  0.84349059  0.10541504  0.70070620     0.76100
O247        O  0.89476686  0.19064037  0.74427827    -0.57300
O248        O  0.86623974  0.08148574  0.71077197    -0.47400
O249        O  0.90495121  0.18891495  0.71030875    -0.53800
C250        C  0.97698452  0.11968513  0.72708348     0.86300
O251        O  0.88721509  0.08794634  0.75690105    -0.55600
O252        O  0.84997550  0.14145552  0.70451780    -0.58900
In253      In  0.58887560  0.82950406  0.53171464     1.36900
C254        C  0.50934338  0.82633458  0.53031122     0.78800
O255        O  0.59212093  0.77099813  0.51502473    -0.59700
O256        O  0.61306379  0.77201899  0.54716743    -0.50600
C257        C  0.61388618  0.86397502  0.49540885     0.71400
O258        O  0.58183269  0.87341319  0.50510659    -0.45500
C259        C  0.61004837  0.88146012  0.56223851     0.76100
O260        O  0.53028512  0.84343873  0.51603769    -0.57300
O261        O  0.63512701  0.86698306  0.54904354    -0.47400
O262        O  0.52893114  0.81074711  0.54559045    -0.53800
C263        C  0.60513870  0.75131859  0.53085341     0.86300
O264        O  0.63489393  0.83787565  0.50495861    -0.55600
O265        O  0.57567189  0.86668213  0.56097421    -0.58900
In266      In  0.38627800  0.82366721  0.52554882     1.36900
C267        C  0.46566272  0.82502500  0.52894016     0.78800
O268        O  0.38862252  0.85521941  0.55685728    -0.59700
O269        O  0.33626056  0.86337818  0.53825609    -0.50600
C270        C  0.36752930  0.85606365  0.48777674     0.71400
O271        O  0.39511718  0.86890613  0.49955849    -0.45500
C272        C  0.37286110  0.74614760  0.52571085     0.76100
O273        O  0.44719480  0.83996558  0.51316435    -0.57300
O274        O  0.35768263  0.76813680  0.54008979    -0.47400
O275        O  0.44362981  0.80915943  0.54319897    -0.53800
C276        C  0.35597195  0.87358798  0.55449961     0.86300
O277        O  0.34792525  0.82736568  0.49580003    -0.55600
O278        O  0.39181532  0.76417402  0.51104034    -0.58900
In279      In  0.58938574  0.62970647  0.53076900     1.36900
C280        C  0.51036507  0.63267640  0.52932415     0.78800
O281        O  0.56910591  0.60001299  0.56124899    -0.59700
O282        O  0.62718446  0.58432523  0.55032358    -0.50600
C283        C  0.61294358  0.59762636  0.49337060     0.71400
O284        O  0.57852011  0.59399868  0.50160632    -0.45500
C285        C  0.60574476  0.70753267  0.53047160     0.76100
O286        O  0.53129256  0.61047444  0.51735965    -0.57300
O287        O  0.61571008  0.68534429  0.54614506    -0.47400
O288        O  0.52981448  0.65450696  0.54185469    -0.53800
C289        C  0.59900216  0.57776842  0.56368858     0.86300
O290        O  0.63728488  0.61656193  0.50492620    -0.55600
O291        O  0.59175575  0.68929692  0.51467200    -0.58900
In292      In  0.38824162  0.62556638  0.52840734     1.36900
C293        C  0.37289780  0.70277745  0.52637786     0.78800
O294        O  0.44485538  0.64942538  0.54255508    -0.59700
O295        O  0.44862858  0.61118209  0.51526094    -0.50600
C296        C  0.37040976  0.57486324  0.56040688     0.71400
O297        O  0.40516346  0.58658870  0.55602901    -0.45500
C298        C  0.36465616  0.59175837  0.49213247     0.76100
O299        O  0.36070094  0.68207692  0.54223588    -0.57300
O300        O  0.39801500  0.58490219  0.50077663    -0.47400
O301        O  0.38943498  0.68349434  0.51142500    -0.53800
C302        C  0.46685636  0.63155835  0.52897129     0.86300
O303        O  0.34330356  0.59150684  0.54939484    -0.55600
O304        O  0.34163550  0.61437585  0.50282557    -0.58900
C305        C  0.68832332  0.08652535  0.65060281     0.87700
C306        C  0.67875799  0.13014656  0.64432914    -0.52600
C307        C  0.68997899  0.15750252  0.65914912     0.10600
C308        C  0.71040125  0.13855302  0.67894250     0.21500
C309        C  0.73397850  0.08588358  0.65480112    -0.53300
C310        C  0.74521121  0.11336397  0.66985495     0.10700
C311        C  0.66931682  0.08044147  0.67321654    -0.52800
C312        C  0.68052880  0.10802211  0.68796867     0.11300
H313        H  0.66401409  0.13855450  0.62936956     0.15800
H314        H  0.72040041  0.16009771  0.69118167     0.01500
H315        H  0.75507333  0.06609174  0.64672880     0.16100
H316        H  0.64803022  0.05701700  0.67683300     0.15900
C317        C  0.66442931  0.33667783  0.65274548     0.87700
C318        C  0.63489102  0.34275852  0.67174235    -0.52600
C319        C  0.64637503  0.32415676  0.69032057     0.10600
C320        C  0.68510733  0.29971374  0.68810254     0.21500
C321        C  0.70594475  0.34929398  0.66135272    -0.53300
C322        C  0.71676051  0.32921741  0.67988634     0.10700
C323        C  0.66775867  0.29098737  0.65050822    -0.52800
C324        C  0.67842658  0.27150452  0.66913156     0.11300
H325        H  0.60748799  0.36032313  0.67063892     0.15800
H326        H  0.69342421  0.28384721  0.70328126     0.01500
H327        H  0.72531451  0.37036924  0.65304728     0.16100
H328        H  0.66160375  0.27581375  0.63554031     0.15900
C329        C  0.60826177  0.03573917  0.61401621     0.87700
C330        C  0.56291190  0.03909449  0.61912681    -0.52600
C331        C  0.53845523  0.02402907  0.60386434     0.10600
C332        C  0.56203160  0.00659645  0.58457749     0.21500
C333        C  0.61570223  0.99090059  0.60996314    -0.53300
C334        C  0.59116668  0.97586799  0.59438957     0.10700
C335        C  0.61323362  0.05588355  0.59174444    -0.52800
C336        C  0.58889849  0.04051994  0.57626497     0.11300
H337        H  0.55092742  0.05262665  0.63374082     0.15800
H338        H  0.54344462  0.99387152  0.57168873     0.01500
H339        H  0.63735830  0.97287023  0.61874379     0.16100
H340        H  0.63322659  0.08071118  0.58887125     0.15900
C341        C  0.35526577  0.02498004  0.60703005     0.87700
C342        C  0.34764161  0.04462791  0.58471964    -0.52600
C343        C  0.37070452  0.02913523  0.56839967     0.10600
C344        C  0.39813028  0.99483273  0.57585800     0.21500
C345        C  0.34782139  0.98045424  0.60363028    -0.53300
C346        C  0.37039885  0.96493661  0.58725862     0.10700
C347        C  0.40109273  0.02817059  0.61036742    -0.52800
C348        C  0.42360828  0.01223261  0.59386275     0.11300
H349        H  0.32720297  0.06958428  0.58245542     0.15800
H350        H  0.41621772  0.98147422  0.56254311     0.01500
H351        H  0.32740558  0.96273861  0.61344650     0.16100
H352        H  0.41393185  0.04173944  0.62451389     0.15900
C353        C  0.30946208  0.10484878  0.64596479     0.87700
C354        C  0.32643812  0.09747100  0.66865180    -0.52600
C355        C  0.30886615  0.12075687  0.68419975     0.10600
C356        C  0.27614009  0.14906616  0.67555626     0.21500
C357        C  0.26380329  0.09840086  0.64841159    -0.53300
C358        C  0.24658493  0.12167836  0.66413304     0.10700
C359        C  0.31390098  0.14981508  0.64205179    -0.52800
C360        C  0.29665188  0.17319695  0.65736609     0.11300
H361        H  0.35112757  0.07703909  0.67178707     0.15800
H362        H  0.26177969  0.16730360  0.68835797     0.01500
H363        H  0.24686971  0.07802672  0.63859453     0.16100
H364        H  0.32979761  0.16236443  0.62820101     0.15900
C365        C  0.30751939  0.35244619  0.65318199     0.87700
C366        C  0.30686030  0.30675674  0.65101808    -0.52600
C367        C  0.28717900  0.28729058  0.66736184     0.10600
C368        C  0.26989902  0.31562513  0.68435362     0.21500
C369        C  0.26285808  0.36466205  0.65524829    -0.53300
C370        C  0.24336432  0.34517776  0.67179798     0.10700
C371        C  0.32549964  0.35964183  0.67561413    -0.52800
C372        C  0.30574724  0.33999493  0.69196369     0.11300
H373        H  0.32071890  0.29169291  0.63742455     0.15800
H374        H  0.25372395  0.29988477  0.69766290     0.01500
H375        H  0.24785460  0.38498020  0.64416659     0.16100
H376        H  0.35266051  0.37651800  0.67800361     0.15900
C377        C  0.61779440  0.41471579  0.61138807     0.87700
C378        C  0.62208401  0.39404869  0.58918700    -0.52600
C379        C  0.60249596  0.41373088  0.57282686     0.10600
C380        C  0.58083240  0.45184176  0.58012345     0.21500
C381        C  0.63302868  0.45729394  0.60704000    -0.53300
C382        C  0.61357310  0.47672697  0.59072002     0.10700
C383        C  0.57201223  0.41919827  0.61495219    -0.52800
C384        C  0.55248466  0.43821040  0.59837590     0.11300
H385        H  0.63865594  0.36667678  0.58655786     0.15800
H386        H  0.56527468  0.46774069  0.56674131     0.01500
H387        H  0.65753141  0.47051044  0.61579320     0.16100
H388        H  0.55670278  0.40745486  0.62916984     0.15900
C389        C  0.36457979  0.42279061  0.61259329     0.87700
C390        C  0.40857873  0.41512471  0.61901444    -0.52600
C391        C  0.43620556  0.42663751  0.60382589     0.10600
C392        C  0.41678236  0.44393667  0.58323816     0.21500
C393        C  0.36244228  0.46741337  0.60665702    -0.53300
C394        C  0.38986320  0.47822825  0.59113432     0.10700
C395        C  0.35959021  0.40140481  0.59084139    -0.52800
C396        C  0.38708784  0.41237539  0.57543281     0.11300
H397        H  0.41705513  0.40231265  0.63450241     0.15800
H398        H  0.43838285  0.45303698  0.57041698     0.01500
H399        H  0.34125175  0.48823846  0.61386786     0.16100
H400        H  0.33633814  0.37970969  0.58809259     0.15900
In401      In  0.38496648  0.83819644  0.22747528     1.36900
C402        C  0.38921624  0.75873341  0.22704097     0.78800
O403        O  0.34750247  0.82945147  0.19758857    -0.59700
O404        O  0.34278100  0.88514167  0.21274629    -0.50600
C405        C  0.35306475  0.85869601  0.26566074     0.71400
O406        O  0.34435270  0.82726774  0.25583157    -0.45500
C407        C  0.46398554  0.85413749  0.22779880     0.76100
O408        O  0.36931389  0.77820002  0.24076842    -0.57300
O409        O  0.44274195  0.86250735  0.21154901    -0.47400
O410        O  0.40704165  0.77978884  0.21301372    -0.53800
C411        C  0.32938982  0.86237746  0.19848967     0.86300
O412        O  0.37716602  0.88111182  0.25548160    -0.55600
O413        O  0.44437204  0.84111526  0.24373812    -0.58900
In414      In  0.58725563  0.83804508  0.22936503     1.36900
C415        C  0.58885207  0.75911046  0.22707104     0.78800
O416        O  0.52670628  0.84363657  0.24489873    -0.59700
O417        O  0.53078989  0.86123563  0.21208277    -0.50600
C418        C  0.61382742  0.85594752  0.26859090     0.71400
O419        O  0.61245484  0.82106880  0.26133686    -0.45500
C420        C  0.64221125  0.86247401  0.20008162     0.76100
O421        O  0.56042938  0.77982363  0.21962319    -0.57300
O422        O  0.62187829  0.83142476  0.19804643    -0.47400
O423        O  0.61682791  0.77869281  0.23525090    -0.53800
C424        C  0.50827221  0.85456535  0.22823553     0.86300
O425        O  0.60133982  0.88257641  0.25566268    -0.55600
O426        O  0.63160140  0.88350115  0.21592284    -0.58900
In427      In  0.58839472  0.63633166  0.22748402     1.36900
C428        C  0.58902257  0.71565131  0.22670582     0.78800
O429        O  0.63954872  0.59881108  0.21465187    -0.59700
O430        O  0.61112234  0.63856099  0.19292226    -0.50600
C431        C  0.61494238  0.61188070  0.26575196     0.71400
O432        O  0.62075476  0.64626253  0.25801448    -0.45500
C433        C  0.51072589  0.61942605  0.22812208     0.76100
O434        O  0.56029205  0.69590139  0.21956017    -0.57300
O435        O  0.53259687  0.60970116  0.21218141    -0.47400
O436        O  0.61765205  0.69502524  0.23389151    -0.53800
C437        C  0.63990961  0.61496685  0.19620637     0.86300
O438        O  0.59565097  0.58892417  0.25362401    -0.55600
O439        O  0.52928262  0.63375254  0.24375028    -0.58900
In440      In  0.38843769  0.63551719  0.22957418     1.36900
C441        C  0.39058682  0.71504337  0.22771132     0.78800
O442        O  0.44810455  0.63210126  0.24475172    -0.59700
O443        O  0.44496163  0.61176102  0.21250437    -0.50600
C444        C  0.35679925  0.61381160  0.26775856     0.71400
O445        O  0.34467724  0.64340790  0.25689628    -0.45500
C446        C  0.33505479  0.61089247  0.20081657     0.76100
O447        O  0.37412818  0.69571539  0.24282981    -0.57300
O448        O  0.34766078  0.64591817  0.20185902    -0.47400
O449        O  0.40724260  0.69381505  0.21344898    -0.53800
C450        C  0.46679248  0.61950536  0.22844878     0.86300
O451        O  0.38414875  0.59371328  0.25859970    -0.55600
O452        O  0.35256126  0.58664445  0.21331281    -0.58900
In453      In  0.09710470  0.14019026  0.03450294     1.36900
C454        C  0.01813427  0.14736596  0.03237414     0.78800
O455        O  0.08112901  0.10336903  0.06320414    -0.59700
O456        O  0.14285995  0.10599154  0.05477087    -0.50600
C457        C  0.11723646  0.09580534  0.00087955     0.71400
O458        O  0.09265554  0.08506733  0.01523914    -0.45500
C459        C  0.11753999  0.21669997  0.03215118     0.76100
O460        O  0.03927483  0.13307479  0.01740316    -0.57300
O461        O  0.12142772  0.19687867  0.04947994    -0.47400
O462        O  0.03739680  0.16043683  0.04815614    -0.53800
C463        C  0.11582333  0.08953665  0.06616141     0.86300
O464        O  0.13429367  0.12856239  0.00435364    -0.55600
O465        O  0.10756385  0.19650253  0.01612721    -0.58900
In466      In  0.89585164  0.13796636  0.03064873     1.36900
C467        C  0.97459342  0.14614319  0.03173190     0.78800
O468        O  0.88319218  0.19723233  0.01567311    -0.59700
O469        O  0.87939677  0.19309494  0.04981657    -0.50600
C470        C  0.88003268  0.11076760  0.99176588     0.71400
O471        O  0.91122937  0.10178583  0.00209975    -0.45500
C472        C  0.87267727  0.08098457  0.05855835     0.76100
O473        O  0.95664841  0.13183243  0.01587115    -0.57300
O474        O  0.90835089  0.09074682  0.05501360    -0.47400
O475        O  0.95228542  0.15711144  0.04715171    -0.53800
C476        C  0.87931230  0.21524980  0.03325823     0.86300
O477        O  0.85451889  0.13135151  0.00213618    -0.55600
O478        O  0.84731904  0.10167187  0.04827299    -0.58900
In479      In  0.09831134  0.33779532  0.02862953     1.36900
C480        C  0.01892978  0.33142907  0.03079260     0.78800
O481        O  0.10753113  0.27803648  0.01376456    -0.59700
O482        O  0.12334841  0.28307095  0.04652939    -0.50600
C483        C  0.11364013  0.37359265  0.99103747     0.71400
O484        O  0.08190927  0.37925386  0.00189621    -0.45500
C485        C  0.12172990  0.39381845  0.05634254     0.76100
O486        O  0.03779741  0.33666935  0.01332048    -0.57300
O487        O  0.14416330  0.38156712  0.04122571    -0.47400
O488        O  0.04060364  0.32847087  0.04728158    -0.53800
C489        C  0.11803542  0.26038383  0.03074577     0.86300
O490        O  0.13902323  0.35067806  0.99993283    -0.55600
O491        O  0.08929986  0.37527466  0.05819766    -0.58900
In492      In  0.89586381  0.33627264  0.03311977     1.36900
C493        C  0.97516551  0.33081571  0.03173023     0.78800
O494        O  0.90985518  0.38391935  0.05603190    -0.59700
O495        O  0.84911708  0.36651682  0.05483028    -0.50600
C496        C  0.86886833  0.37387418  0.99818817     0.71400
O497        O  0.90404146  0.37750929  0.00506016    -0.45500
C498        C  0.87996914  0.25875538  0.03392811     0.76100
O499        O  0.95422232  0.33599520  0.01509975    -0.57300
O500        O  0.88239877  0.27847480  0.05108841    -0.47400
O501        O  0.95554751  0.32678847  0.04913876    -0.53800
C502        C  0.87446436  0.39036261  0.06223498     0.86300
O503        O  0.84658668  0.35185651  0.00968465    -0.55600
O504        O  0.88256294  0.27910068  0.01685943    -0.58900
C505        C  0.79797537  0.85309687  0.14639474     0.87700
C506        C  0.79720345  0.80805909  0.14243301    -0.52600
C507        C  0.77936641  0.78638677  0.15832668     0.10600
C508        C  0.76310397  0.81166718  0.17696760     0.21500
C509        C  0.75343319  0.86465127  0.15000788    -0.53300
C510        C  0.73539114  0.84268634  0.16621897     0.10700
C511        C  0.81747454  0.85749910  0.16868307    -0.52800
C512        C  0.79893778  0.83584507  0.18472419     0.11300
H513        H  0.80995997  0.79413424  0.12815048     0.15800
H514        H  0.74808034  0.79397752  0.18993958     0.01500
H515        H  0.73765267  0.88693002  0.14045645     0.16100
H516        H  0.84411860  0.87504588  0.17127257     0.15900
C517        C  0.80421928  0.61247660  0.15183802     0.87700
C518        C  0.82970734  0.60304255  0.17188433    -0.52600
C519        C  0.81442793  0.61839244  0.19066156     0.10600
C520        C  0.77526389  0.64237786  0.18741096     0.21500
C521        C  0.76176781  0.59745636  0.15760853    -0.53300
C522        C  0.74708313  0.61300425  0.17653780     0.10700
C523        C  0.80034260  0.65786507  0.15149706    -0.52800
C524        C  0.78478030  0.67379236  0.16996459     0.11300
H525        H  0.85725952  0.58580843  0.17123618     0.15800
H526        H  0.76210970  0.65594493  0.20212638     0.01500
H527        H  0.74585638  0.57555225  0.14828438     0.16100
H528        H  0.81033053  0.67576344  0.13778143     0.15900
C529        C  0.10824000  0.54538844  0.11141173     0.87700
C530        C  0.06199258  0.54520534  0.11285579    -0.52600
C531        C  0.04383363  0.52763017  0.09579689     0.10600
C532        C  0.07365705  0.51152986  0.07896101     0.21500
C533        C  0.12026452  0.50121419  0.10861421    -0.53300
C534        C  0.10227255  0.48377818  0.09136388     0.10700
C535        C  0.11755040  0.56544635  0.08933860    -0.52800
C536        C  0.09891411  0.54766889  0.07229704     0.11300
H537        H  0.04542364  0.55781486  0.12625368     0.15800
H538        H  0.05881393  0.49685689  0.06518153     0.01500
H539        H  0.14050931  0.48518532  0.11939101     0.16100
H540        H  0.13523380  0.59221383  0.08772557     0.15900
C541        C  0.85701381  0.54844010  0.10763826     0.87700
C542        C  0.85156368  0.57135768  0.08602013    -0.52600
C543        C  0.87961060  0.56151459  0.07061100     0.10600
C544        C  0.90974791  0.52944461  0.07825227     0.21500
C545        C  0.85604697  0.50416628  0.10143019    -0.53300
C546        C  0.88381877  0.49443133  0.08592087     0.10700
C547        C  0.90073648  0.55594725  0.11417928    -0.52800
C548        C  0.92854062  0.54541226  0.09896926     0.11300
H549        H  0.82827973  0.59351752  0.08343542     0.15800
H550        H  0.93191213  0.52133582  0.06548768     0.01500
H551        H  0.83592020  0.48265273  0.10884134     0.16100
H552        H  0.90896815  0.56747224  0.12986916     0.15900
C553        C  0.11535966  0.92561540  0.10943456     0.87700
C554        C  0.12593071  0.90819939  0.08703221    -0.52600
C555        C  0.10265164  0.92300434  0.07076803     0.10600
C556        C  0.07194723  0.95421098  0.07822012     0.21500
C557        C  0.11914094  0.97122692  0.10623940    -0.53300
C558        C  0.09614582  0.98598474  0.08979120     0.10700
C559        C  0.06956739  0.91837059  0.11240744    -0.52800
C560        C  0.04697703  0.93334320  0.09574319     0.11300
H561        H  0.14849003  0.88506697  0.08457330     0.15800
H562        H  0.05355806  0.96659914  0.06482894     0.01500
H563        H  0.13770546  0.98993340  0.11613223     0.16100
H564        H  0.05674455  0.90194014  0.12596193     0.15900
C565        C  0.85783152  0.92617434  0.10855255     0.87700
C566        C  0.90090331  0.91722333  0.11636905    -0.52600
C567        C  0.93050076  0.92865606  0.10229217     0.10600
C568        C  0.91373774  0.94826778  0.08154695     0.21500
C569        C  0.85713136  0.97121529  0.10350688    -0.53300
C570        C  0.88645777  0.98248628  0.08914657     0.10700
C571        C  0.85506391  0.90655644  0.08607612    -0.52800
C572        C  0.88463653  0.91821504  0.07196470     0.11300
H573        H  0.90728340  0.90349711  0.13192084     0.15800
H574        H  0.93656363  0.95864786  0.06972379     0.01500
H575        H  0.83530788  0.99189032  0.11026030     0.16100
H576        H  0.83195185  0.88570803  0.08188687     0.15900
C577        C  0.16985731  0.84981499  0.14887859     0.87700
C578        C  0.15191987  0.85861260  0.17134527    -0.52600
C579        C  0.17187408  0.83972339  0.18778823     0.10600
C580        C  0.20766688  0.81442564  0.18032372     0.21500
C581        C  0.21464026  0.86142065  0.15036446    -0.53300
C582        C  0.23420560  0.84279705  0.16711134     0.10700
C583        C  0.17033247  0.80373077  0.14755558    -0.52800
C584        C  0.19015146  0.78518193  0.16417926     0.11300
H585        H  0.12501723  0.87612326  0.17369051     0.15800
H586        H  0.22383908  0.79942134  0.19382009     0.01500
H587        H  0.22938427  0.88152870  0.13911924     0.16100
H588        H  0.15596797  0.78774893  0.13477206     0.15900
C589        C  0.17785591  0.59798488  0.15313856     0.87700
C590        C  0.16982865  0.64153640  0.14617930    -0.52600
C591        C  0.18126099  0.66932120  0.16073878     0.10600
C592        C  0.19947528  0.65054843  0.18126517     0.21500
C593        C  0.22296045  0.59622681  0.15836414    -0.53300
C594        C  0.23406773  0.62389223  0.17319565     0.10700
C595        C  0.15664739  0.59343480  0.17534390    -0.52800
C596        C  0.16780542  0.62135270  0.19005842     0.11300
H597        H  0.15641392  0.64964078  0.13079595     0.15800
H598        H  0.20888036  0.67216493  0.19361063     0.01500
H599        H  0.24398559  0.57562650  0.15090721     0.16100
H600        H  0.13409372  0.57102530  0.17872755     0.15900
In601      In  0.58711514  0.30900335  0.78788257     1.36900
C602        C  0.58249928  0.23110335  0.78366894     0.78800
O603        O  0.62932690  0.28409243  0.81222472    -0.59700
O604        O  0.62612470  0.34704550  0.80948696    -0.50600
C605        C  0.61868585  0.33052768  0.75004866     0.71400
O606        O  0.59021504  0.30632945  0.75201860    -0.45500
C607        C  0.51178343  0.33563488  0.79083009     0.76100
O608        O  0.60738299  0.25214984  0.77348985    -0.57300
O609        O  0.52986310  0.32189327  0.80709552    -0.47400
O610        O  0.55897506  0.24982723  0.79607947    -0.53800
C611        C  0.64338015  0.31691135  0.81777648     0.86300
O612        O  0.62988039  0.34592494  0.76753095    -0.55600
O613        O  0.53385823  0.34150779  0.77459794    -0.58900
In614      In  0.39108119  0.31950660  0.78292365     1.36900
C615        C  0.46793878  0.33720169  0.78910323     0.78800
O616        O  0.41209942  0.25966412  0.79538330    -0.59700
O617        O  0.38688922  0.26326008  0.76406351    -0.50600
C618        C  0.32991980  0.33041027  0.81060370     0.71400
O619        O  0.34897133  0.35975806  0.80290838    -0.45500
C620        C  0.36200443  0.34673090  0.74566658     0.76100
O621        O  0.44418299  0.33123777  0.80474724    -0.57300
O622        O  0.35721621  0.31182639  0.75278915    -0.47400
O623        O  0.45144269  0.33865763  0.77093785    -0.53800
C624        C  0.40082277  0.24142239  0.77886393     0.86300
O625        O  0.34372508  0.29721130  0.80518186    -0.55600
O626        O  0.38157986  0.36912513  0.75797546    -0.58900
In627      In  0.39220885  0.11970565  0.77651106     1.36900
C628        C  0.40063135  0.19810001  0.77749940     0.78800
O629        O  0.35559608  0.13534844  0.80578068    -0.59700
O630        O  0.34558715  0.07892630  0.79230203    -0.50600
C631        C  0.35934256  0.10197701  0.73894779     0.71400
O632        O  0.35623325  0.13561051  0.74768354    -0.45500
C633        C  0.46913011  0.09660026  0.77744929     0.76100
O634        O  0.38342475  0.18054985  0.76235743    -0.57300
O635        O  0.44586379  0.09008251  0.79326502    -0.47400
O636        O  0.41508045  0.17552232  0.79189007    -0.53800
C637        C  0.33482724  0.10439014  0.80608880     0.86300
O638        O  0.37826685  0.07611885  0.74991801    -0.55600
O639        O  0.45217696  0.11090796  0.76107163    -0.58900
In640      In  0.59108763  0.11032890  0.77986886     1.36900
C641        C  0.58313126  0.18813180  0.78174423     0.78800
O642        O  0.53377940  0.10489847  0.76222287    -0.59700
O643        O  0.53309812  0.08630686  0.79505562    -0.50600
C644        C  0.62479805  0.09157375  0.74212807     0.71400
O645        O  0.62634221  0.12560698  0.75039726    -0.45500
C646        C  0.64636897  0.09583519  0.81048085     0.76100
O647        O  0.60765493  0.17102204  0.76923470    -0.57300
O648        O  0.63331587  0.06823784  0.79878037    -0.47400
O649        O  0.56126199  0.16540446  0.79301634    -0.53800
C650        C  0.51310070  0.09393207  0.77823151     0.86300
O651        O  0.60662530  0.06584855  0.75354878    -0.55600
O652        O  0.62814689  0.12828948  0.80797114    -0.58900
In653      In  0.09551455  0.84101879  0.97904301     1.36900
C654        C  0.01626976  0.84603387  0.97587776     0.78800
O655        O  0.10468245  0.86136154  0.94403340    -0.59700
O656        O  0.12758922  0.89670112  0.96889507    -0.50600
C657        C  0.11825487  0.86820242  0.01698323     0.71400
O658        O  0.08422650  0.87425802  0.00883912    -0.45500
C659        C  0.10638294  0.76241074  0.98120828     0.76100
O660        O  0.03546630  0.86195553  0.99076990    -0.57300
O661        O  0.12577810  0.78320344  0.96763929    -0.47400
O662        O  0.03754435  0.82864632  0.96191561    -0.53800
C663        C  0.12081062  0.89364174  0.94904980     0.86300
O664        O  0.14227795  0.84791615  0.00534479    -0.55600
O665        O  0.08537891  0.78212298  0.99425984    -0.58900
In666      In  0.89352998  0.85026603  0.97559984     1.36900
C667        C  0.97266636  0.84724986  0.97539072     0.78800
O668        O  0.89130491  0.78920110  0.99021763    -0.59700
O669        O  0.86962449  0.79409557  0.95841868    -0.50600
C670        C  0.87087773  0.87578495  0.01466927     0.71400
O671        O  0.90450098  0.88271155  0.00608768    -0.45500
C672        C  0.87634766  0.90989333  0.94722767     0.76100
O673        O  0.95252082  0.86513504  0.98966792    -0.57300
O674        O  0.84974150  0.89444148  0.95925576    -0.47400
O675        O  0.95238215  0.83042500  0.96105827    -0.53800
C676        C  0.87763400  0.77131304  0.97423883     0.86300
O677        O  0.84702688  0.85725118  0.00267681    -0.55600
O678        O  0.90967091  0.89244711  0.94839213    -0.58900
In679      In  0.88489683  0.64719182  0.97695616     1.36900
C680        C  0.96453251  0.64645534  0.97713445     0.78800
O681        O  0.89520231  0.60339500  0.95006516    -0.59700
O682        O  0.83544748  0.61153224  0.96056445    -0.50600
C683        C  0.86370734  0.61702985  0.01583427     0.71400
O684        O  0.89586548  0.60878415  0.00597116    -0.45500
C685        C  0.87483820  0.72721537  0.97464225     0.76100
O686        O  0.94328799  0.63097373  0.99177014    -0.57300
O687        O  0.86786615  0.70543855  0.95861140    -0.47400
O688        O  0.94518631  0.66232426  0.96183823    -0.53800
C689        C  0.85949761  0.59216155  0.94869669     0.86300
O690        O  0.84050643  0.64003386  0.00535804    -0.55600
O691        O  0.88288865  0.70790971  0.99154862    -0.58900
In692      In  0.08743105  0.64121411  0.98139966     1.36900
C693        C  0.00824226  0.64539615  0.97829305     0.78800
O694        O  0.08304966  0.70142789  0.99547200    -0.59700
O695        O  0.11926356  0.69608535  0.96728978    -0.50600
C696        C  0.10829215  0.60987348  0.01963725     0.71400
O697        O  0.07788900  0.59924107  0.00928477    -0.45500
C698        C  0.11131493  0.58722747  0.95207700     0.76100
O699        O  0.02594435  0.62812386  0.99369328    -0.57300
O700        O  0.13438665  0.60006213  0.96637390    -0.47400
O701        O  0.03100716  0.66112186  0.96428467    -0.53800
C702        C  0.10412537  0.71879092  0.98141965     0.86300
O703        O  0.12912574  0.63601088  0.01011802    -0.55600
O704        O  0.07787393  0.60466106  0.95156768    -0.58900
C705        C  0.09894294  0.43301281  0.89942297     0.87700
C706        C  0.05281380  0.43319876  0.89910503    -0.52600
C707        C  0.03517488  0.45145436  0.91641568     0.10600
C708        C  0.06543435  0.46794086  0.93241886     0.21500
C709        C  0.11022173  0.47741892  0.90144621    -0.53300
C710        C  0.09266903  0.49543364  0.91898820     0.10700
C711        C  0.10978054  0.41385669  0.92132866    -0.52800
C712        C  0.09192007  0.43214347  0.93864342     0.11300
H713        H  0.03599280  0.42035340  0.88603584     0.15800
H714        H  0.05107356  0.48290149  0.94649480     0.01500
H715        H  0.12927286  0.49313571  0.88994803     0.16100
H716        H  0.12793884  0.38700112  0.92273726     0.15900
C717        C  0.84853150  0.42792459  0.90671950     0.87700
C718        C  0.84578809  0.41262736  0.93015239    -0.52600
C719        C  0.87286626  0.42931348  0.94367053     0.10600
C720        C  0.89987724  0.46024380  0.93255017     0.21500
C721        C  0.84381439  0.47381385  0.90847460    -0.53300
C722        C  0.87106848  0.49050835  0.92216422     0.10700
C723        C  0.89284618  0.42088160  0.90029082    -0.52800
C724        C  0.91977882  0.43827588  0.91354251     0.11300
H725        H  0.82563069  0.38900975  0.93514857     0.15800
H726        H  0.92090453  0.47397854  0.94396231     0.01500
H727        H  0.82179380  0.49120600  0.89957470     0.16100
H728        H  0.90226894  0.40340839  0.88642957     0.15900
C729        C  0.80363287  0.11515978  0.85893995     0.87700
C730        C  0.80575163  0.16108279  0.86182392    -0.52600
C731        C  0.78905246  0.18260379  0.84517543     0.10600
C732        C  0.77183840  0.15607154  0.82747491     0.21500
C733        C  0.75873146  0.10635824  0.85549885    -0.53300
C734        C  0.74226317  0.12781075  0.83884503     0.10700
C735        C  0.82319699  0.10731535  0.83661974    -0.52800
C736        C  0.80665990  0.12913885  0.82018602     0.11300
H737        H  0.81999612  0.17486163  0.87551464     0.15800
H738        H  0.75812599  0.17324415  0.81395020     0.01500
H739        H  0.74175426  0.08517186  0.86518451     0.16100
H740        H  0.84853117  0.08726374  0.83428893     0.15900
C741        C  0.80514090  0.37105261  0.85720404     0.87700
C742        C  0.82169821  0.37075520  0.83394946    -0.52600
C743        C  0.80457950  0.34309366  0.82104266     0.10600
C744        C  0.77250495  0.31800858  0.83266213     0.21500
C745        C  0.75973767  0.37686218  0.85464048    -0.53300
C746        C  0.74250159  0.34894957  0.84190854     0.10700
C747        C  0.81068770  0.32748776  0.86534423    -0.52800
C748        C  0.79384843  0.29924501  0.85241647     0.11300
H749        H  0.84563892  0.39015483  0.82843363     0.15800
H750        H  0.75824211  0.29674481  0.82165401     0.01500
H751        H  0.74299099  0.40146494  0.86170000     0.16100
H752        H  0.82718433  0.31976789  0.87985593     0.15900
C753        C  0.18093562  0.12882064  0.85875833     0.87700
C754        C  0.16111421  0.12125683  0.83683664    -0.52600
C755        C  0.17941481  0.14078834  0.81993151     0.10600
C756        C  0.21560124  0.16562353  0.82658390     0.21500
C757        C  0.22531221  0.11680897  0.85551715    -0.53300
C758        C  0.24318790  0.13608887  0.83847147     0.10700
C759        C  0.18126421  0.17477558  0.86078144    -0.52800
C760        C  0.19937483  0.19424503  0.84384163     0.11300
H761        H  0.13448008  0.10330168  0.83514549     0.15800
H762        H  0.23063235  0.18107379  0.81279326     0.01500
H763        H  0.24106151  0.09551933  0.86573812     0.16100
H764        H  0.16766662  0.19010567  0.87436995     0.15900
C765        C  0.17158248  0.38027605  0.85804710     0.87700
C766        C  0.17096876  0.33615317  0.86530167    -0.52600
C767        C  0.18620896  0.30998477  0.85044210     0.10600
C768        C  0.20068602  0.33102780  0.82954342     0.21500
C769        C  0.21546657  0.38844603  0.85178092    -0.53300
C770        C  0.23080279  0.36266936  0.83690157     0.10700
C771        C  0.14913272  0.38137389  0.83636125    -0.52800
C772        C  0.16433957  0.35525669  0.82148898     0.11300
H773        H  0.15916629  0.32652588  0.88090065     0.15800
H774        H  0.21293913  0.31106504  0.81693049     0.01500
H775        H  0.23279360  0.41259670  0.85840356     0.16100
H776        H  0.12313553  0.40019225  0.83333351     0.15900
C777        C  0.88648518  0.06938539  0.89749734     0.87700
C778        C  0.93180937  0.07140202  0.89251788    -0.52600
C779        C  0.95585230  0.05494309  0.90786095     0.10600
C780        C  0.93199263  0.03706325  0.92699139     0.21500
C781        C  0.87824584  0.02447447  0.90148387    -0.53300
C782        C  0.90221048  0.00773163  0.91717080     0.10700
C783        C  0.88149534  0.08836759  0.91986686    -0.52800
C784        C  0.90518233  0.07107582  0.93533252     0.11300
H785        H  0.94407018  0.08522927  0.87796883     0.15800
H786        H  0.95079483  0.02307221  0.93970284     0.01500
H787        H  0.85599498  0.00775322  0.89279280     0.16100
H788        H  0.86139429  0.11327578  0.92302397     0.15900
C789        C  0.13771894  0.05565518  0.90305351     0.87700
C790        C  0.14856684  0.07941574  0.92330676    -0.52600
C791        C  0.12787156  0.06861939  0.94141902     0.10600
C792        C  0.09799961  0.03480080  0.93766733     0.21500
C793        C  0.14446632  0.01151870  0.90976046    -0.53300
C794        C  0.12372379  0.00103855  0.92821012     0.10700
C795        C  0.09192260  0.06020824  0.90099091    -0.52800
C796        C  0.07088965  0.04901003  0.91914150     0.11300
H797        H  0.17076449  0.10288941  0.92329071     0.15800
H798        H  0.08047403  0.02564010  0.95217266     0.01500
H799        H  0.16539504  0.99159670  0.90164566     0.16100
H800        H  0.07799243  0.07150363  0.88639398     0.15900
C801        C  0.00046352  0.05523607  0.90524253    -0.15300
C802        C  0.02618939  0.04943705  0.92165285    -0.30400
H803        H  0.01212604  0.06116213  0.88912648     0.13800
H804        H  0.01440925  0.04419091  0.93780208     0.14300
C805        C  0.15938346  0.10951770  0.87781523    -0.15300
C806        C  0.16039765  0.07034764  0.88306598    -0.30400
H807        H  0.14204984  0.12923625  0.88822266     0.13800
H808        H  0.17815654  0.04967388  0.87348267     0.14300
C809        C  0.20180432  0.23857066  0.84077018    -0.15300
C810        C  0.18648742  0.26582616  0.85461762    -0.30400
H811        H  0.21615552  0.24852814  0.82594829     0.13800
H812        H  0.17266270  0.25575998  0.86959701     0.14300
C813        C  0.82303308  0.09117914  0.87729403    -0.15300
C814        C  0.86315401  0.09093417  0.87973444    -0.30400
H815        H  0.80447838  0.07341312  0.88813297     0.13800
H816        H  0.88059402  0.10832142  0.86815662     0.14300
C817        C  0.78818307  0.22714108  0.84225233    -0.15300
C818        C  0.79699210  0.25503108  0.85711199    -0.30400
H819        H  0.77933980  0.23695667  0.82629994     0.13800
H820        H  0.80695137  0.24554204  0.87300637     0.14300
C821        C  0.82543908  0.40256056  0.87075174    -0.15300
C822        C  0.81933181  0.40613796  0.89219128    -0.30400
H823        H  0.84828409  0.42084677  0.86304215     0.13800
H824        H  0.79695008  0.38714539  0.89978957     0.14300
C825        C  0.11609743  0.41045455  0.88022612    -0.15300
C826        C  0.15537076  0.40832345  0.87529505    -0.30400
H827        H  0.09548656  0.39337767  0.87056140     0.13800
H828        H  0.17630664  0.42587887  0.88447728     0.14300
C829        C  0.96366872  0.43464717  0.90946504    -0.15300
C830        C  0.99125102  0.45566510  0.92013056    -0.30400
H831        H  0.97319465  0.41370201  0.89717471     0.13800
H832        H  0.98203356  0.47653281  0.93247094     0.14300
C833        C  0.12085499  0.55189501  0.93870668    -0.15300
C834        C  0.09479571  0.53835730  0.92409068    -0.30400
H835        H  0.14620015  0.53332399  0.94339030     0.13800
H836        H  0.06850587  0.55620959  0.92018034     0.14300
C837        C  0.84785488  0.55678705  0.93586415    -0.15300
C838        C  0.87633521  0.53355383  0.92668723    -0.30400
H839        H  0.81716580  0.54641409  0.93693625     0.13800
H840        H  0.90726999  0.54331856  0.92718410     0.14300
C841        C  0.87044252  0.94704743  0.93408022    -0.15300
C842        C  0.90214441  0.96534169  0.92460935    -0.30400
H843        H  0.84136253  0.96185420  0.93440837     0.13800
H844        H  0.93155014  0.95144543  0.92598474     0.14300
C845        C  0.12930791  0.96414330  0.94116525    -0.15300
C846        C  0.12744472  0.92690713  0.93351564    -0.30400
H847        H  0.12843290  0.96831698  0.95855706     0.13800
H848        H  0.12455162  0.92188880  0.91630015     0.14300
C849        C  0.68234815  0.09242872  0.82446519    -0.15300
C850        C  0.70003912  0.12586658  0.83156950    -0.30400
H851        H  0.69742065  0.06378716  0.82619538     0.13800
H852        H  0.68608213  0.15451034  0.82800099     0.14300
C853        C  0.29873176  0.10037204  0.82007753    -0.15300
C854        C  0.28561576  0.13149570  0.83184276    -0.30400
H855        H  0.27976331  0.07454413  0.81817051     0.13800
H856        H  0.30349882  0.15832511  0.83234820     0.14300
C857        C  0.29294657  0.33240233  0.82375191    -0.15300
C858        C  0.27209285  0.36570941  0.82793622    -0.30400
H859        H  0.28037846  0.30393114  0.82868764     0.13800
H860        H  0.28444463  0.39477486  0.82407797     0.14300
C861        C  0.67962420  0.31800842  0.83116011    -0.15300
C862        C  0.69999884  0.35129817  0.83511501    -0.30400
H863        H  0.69279734  0.28937924  0.83558230     0.13800
H864        H  0.68679749  0.38030176  0.83161752     0.14300
C865        C  0.19443391  0.74128102  0.16781728    -0.15300
C866        C  0.17603548  0.71297952  0.15633765    -0.30400
H867        H  0.21401102  0.73241744  0.18092044     0.13800
H868        H  0.15702388  0.72167806  0.14295527     0.14300
C869        C  0.88958404  0.90519853  0.04920216    -0.15300
C870        C  0.86140018  0.88757946  0.03719793    -0.30400
H871        H  0.91847939  0.91182939  0.04173551     0.13800
H872        H  0.83189549  0.88122219  0.04390338     0.14300
C873        C  0.14108800  0.90851777  0.12763498    -0.15300
C874        C  0.14602014  0.86887422  0.13053480    -0.30400
H875        H  0.15630077  0.92876602  0.13832460     0.13800
H876        H  0.13118714  0.84912661  0.11940179     0.14300
C877        C  0.00298110  0.92896861  0.09222380    -0.15300
C878        C  0.97433036  0.92502795  0.10761088    -0.30400
H879        H  0.99409188  0.93188098  0.07562838     0.13800
H880        H  0.98285346  0.92102685  0.12430570     0.14300
C881        C  0.10133329  0.90844146  0.04828459    -0.15300
C882        C  0.12775542  0.88352980  0.03868189    -0.30400
H883        H  0.07540154  0.91846042  0.03923040     0.13800
H884        H  0.15482747  0.87374381  0.04675100     0.14300
C885        C  0.88314128  0.57919617  0.04845637    -0.15300
C886        C  0.85531436  0.60138888  0.03802617    -0.30400
H887        H  0.91127302  0.57243175  0.03992924     0.13800
H888        H  0.82657167  0.60844789  0.04580745     0.14300
C889        C  0.16439523  0.56899295  0.13588477    -0.15300
C890        C  0.12532031  0.56695704  0.13073503    -0.30400
H891        H  0.18648451  0.55193862  0.12684974     0.13800
H892        H  0.10425989  0.58391394  0.14058773     0.14300
C893        C  0.99966766  0.52484915  0.09272273    -0.15300
C894        C  0.97241348  0.54803370  0.10301261    -0.30400
H895        H  0.98974880  0.50348630  0.08102562     0.13800
H896        H  0.98200539  0.56904506  0.11497257     0.14300
C897        C  0.09682705  0.56313335  0.04972628    -0.15300
C898        C  0.11765850  0.59383830  0.04142775    -0.30400
H899        H  0.07493553  0.54876924  0.03943506     0.13800
H900        H  0.14066820  0.60832236  0.05088594     0.14300
C901        C  0.82324135  0.59808433  0.13100636    -0.15300
C902        C  0.82803119  0.55971854  0.12565018    -0.30400
H903        H  0.83706126  0.62037838  0.12055067     0.13800
H904        H  0.81424919  0.53658482  0.13550825     0.14300
C905        C  0.82126124  0.87284900  0.12806945    -0.15300
C906        C  0.82638136  0.91213600  0.12490436    -0.30400
H907        H  0.83785605  0.85310090  0.11739589     0.13800
H908        H  0.81016170  0.93344507  0.13479756     0.14300
C909        C  0.77670656  0.74276024  0.15640120    -0.15300
C910        C  0.77928616  0.71734037  0.17322486    -0.30400
H911        H  0.77619756  0.73136736  0.14003221     0.13800
H912        H  0.77925202  0.72857772  0.18965361     0.14300
C913        C  0.85565322  0.39223175  0.97771743    -0.15300
C914        C  0.88044151  0.41577002  0.96614569    -0.30400
H915        H  0.82639846  0.38441167  0.97166181     0.13800
H916        H  0.90894478  0.42419856  0.97300890     0.14300
C917        C  0.86417005  0.42526255  0.07558587    -0.15300
C918        C  0.89138382  0.45437941  0.07714565    -0.30400
H919        H  0.83380442  0.42915163  0.08181740     0.13800
H920        H  0.92066034  0.45039838  0.06948630     0.14300
C921        C  0.11942920  0.39114808  0.96924871    -0.15300
C922        C  0.09208774  0.41677501  0.96117409    -0.30400
H923        H  0.14515128  0.38182107  0.95961601     0.13800
H924        H  0.06752323  0.42677386  0.97149976     0.14300
C925        C  0.13060944  0.42941757  0.06938085    -0.15300
C926        C  0.10595837  0.44128076  0.08547286    -0.30400
H927        H  0.15413241  0.44927468  0.06360827     0.13800
H928        H  0.08156732  0.42204632  0.09066892     0.14300
C929        C  0.87536381  0.09972634  0.96895641    -0.15300
C930        C  0.90620610  0.08264741  0.95825616    -0.30400
H931        H  0.84744359  0.10673605  0.96085648     0.13800
H932        H  0.93347024  0.07503601  0.96688159     0.14300
C933        C  0.89235436  0.02290107  0.08005783    -0.15300
C934        C  0.86250708  0.04661302  0.07273772    -0.30400
H935        H  0.92307897  0.03031510  0.07605895     0.13800
H936        H  0.83149743  0.03853286  0.07520817     0.14300
C937        C  0.12234671  0.07243751  0.98113502    -0.15300
C938        C  0.13331910  0.08914898  0.96226911    -0.30400
H939        H  0.11172374  0.04202587  0.98174369     0.13800
H940        H  0.14444471  0.11947877  0.96191722     0.14300
C941        C  0.09192398  0.02838015  0.08319132    -0.15300
C942        C  0.12270187  0.05355851  0.07980162    -0.30400
H943        H  0.06251353  0.03675559  0.07721071     0.13800
H944        H  0.15307225  0.04444051  0.08367704     0.04700
C945        C  0.30011651  0.60075915  0.18749518    -0.15300
C946        C  0.27522761  0.63009429  0.18096545    -0.30400
H947        H  0.29165931  0.56957334  0.18574069     0.13800
H948        H  0.28267751  0.66092807  0.18465528     0.14300
C949        C  0.67353956  0.61053892  0.18064788    -0.15300
C950        C  0.71005302  0.60040266  0.18781544    -0.30400
H951        H  0.67039717  0.62335512  0.16452464     0.13800
H952        H  0.71342244  0.59171933  0.20469256     0.14300
C953        C  0.67802621  0.87133196  0.18647023    -0.15300
C954        C  0.69240650  0.84440735  0.17233674    -0.30400
H955        H  0.69617547  0.89675392  0.19059215     0.13800
H956        H  0.67545235  0.81753586  0.16955718     0.14300
C957        C  0.29273042  0.87152711  0.18570446    -0.15300
C958        C  0.27781027  0.84507185  0.17168718    -0.30400
H959        H  0.27449873  0.89703895  0.19043592     0.13800
H960        H  0.29535308  0.81854820  0.16797263     0.14300
C961        C  0.50807608  0.44358323  0.59632426    -0.15300
C962        C  0.48037479  0.42266425  0.60761658    -0.30400
H963        H  0.49826469  0.46462771  0.58407167     0.13800
H964        H  0.49000548  0.40195309  0.62010950     0.14300
C965        C  0.33162744  0.37038352  0.63466726    -0.15300
C966        C  0.33517574  0.40941078  0.63010279    -0.30400
H967        H  0.34889533  0.34978741  0.62472107     0.13800
H968        H  0.31794280  0.43121935  0.63922917     0.14300
C969        C  0.31976080  0.33563883  0.71449569    -0.15300
C970        C  0.34652712  0.35899913  0.72427320    -0.30400
H971        H  0.30764294  0.31033470  0.72339712     0.13800
H972        H  0.35787987  0.38571659  0.71642260     0.14300
C973        C  0.28237618  0.24321308  0.66926422    -0.15300
C974        C  0.30012011  0.21724962  0.65569647    -0.30400
H975        H  0.26386456  0.23233058  0.68248487     0.13800
H976        H  0.31870638  0.22828039  0.64254489     0.14300
C977        C  0.32178504  0.12280438  0.70697691    -0.15300
C978        C  0.34347756  0.09451955  0.71719324    -0.30400
H979        H  0.31328697  0.14965516  0.71560675     0.13800
H980        H  0.35097589  0.06666426  0.70932945     0.14300
C981        C  0.33057599  0.04307687  0.62524885    -0.15300
C982        C  0.33133866  0.08253628  0.62822769    -0.30400
H983        H  0.31206968  0.02438347  0.63563987     0.13800
H984        H  0.34975176  0.09997573  0.61712046     0.14300
C985        C  0.49379186  0.02594183  0.60648219    -0.15300
C986        C  0.46827600  0.01063809  0.59212371    -0.30400
H987        H  0.48186291  0.04061873  0.62074113     0.13800
H988        H  0.48010059  0.99592318  0.57793214     0.14300
C989        C  0.63825325  0.39514914  0.63084853    -0.15300
C990        C  0.65082930  0.35682849  0.63185420    -0.30400
H991        H  0.63917387  0.41260344  0.64552470     0.13800
H992        H  0.64781710  0.33806711  0.61786004     0.14300
C993        C  0.62271130  0.32550920  0.71055557    -0.15300
C994        C  0.63895762  0.33763621  0.72912305    -0.30400
H995        H  0.59216103  0.31463752  0.71029800     0.13800
H996        H  0.66881683  0.35028647  0.72905863     0.14300
C997        C  0.63169103  0.05567438  0.63177770    -0.15300
C998        C  0.67190874  0.05798707  0.63382703    -0.30400
H999        H  0.61366350  0.07241566  0.64332931     0.13800
H1000       H  0.69192002  0.04168878  0.62308930     0.14300
C1001       C  0.68326708  0.20108303  0.65564469    -0.15300
C1002       C  0.68366782  0.22756842  0.67186739    -0.30400
H1003       H  0.67752406  0.21114998  0.63925849     0.13800
H1004       H  0.68819945  0.21705262  0.68826967     0.14300
C1005       C  0.66445307  0.11122712  0.71032724    -0.15300
C1006       C  0.64219077  0.08337613  0.72055723    -0.30400
H1007       H  0.67113173  0.13862940  0.71866087     0.13800
H1008       H  0.63600299  0.05508643  0.71309221     0.14300
C1009       C  0.36319825  0.54180584  0.57580931    -0.15300
C1010       C  0.39426860  0.51836656  0.58159592    -0.30400
H1011       H  0.33263765  0.53337505  0.57980582     0.13800
H1012       H  0.42425104  0.52570598  0.57588875     0.14300
C1013       C  0.59715561  0.54460547  0.57955608    -0.15300
C1014       C  0.62530373  0.51624812  0.58186383    -0.30400
H1015       H  0.56826871  0.54010938  0.58747086     0.13800
H1016       H  0.65479642  0.51968497  0.57455304     0.14300
C1017       C  0.34445865  0.90747848  0.56816759    -0.15300
C1018       C  0.37149945  0.92268400  0.58159301    -0.30400
H1019       H  0.31743408  0.92429847  0.56429275     0.13800
H1020       H  0.39991245  0.90732797  0.58409639     0.14300
C1021       C  0.61895703  0.91543648  0.57657436    -0.15300
C1022       C  0.58915920  0.93375864  0.58755797    -0.30400
H1023       H  0.64830828  0.92911207  0.57545116     0.13800
H1024       H  0.55925058  0.92125897  0.58710634     0.14300
C1025       C  0.84621861  0.10354442  0.78828657    -0.15300
C1026       C  0.82153771  0.13057801  0.79751744    -0.30400
H1027       H  0.85558322  0.07695625  0.79703761     0.13800
H1028       H  0.81184309  0.15625189  0.78804727     0.14300
C1029       C  0.81017284  0.09300492  0.68659150    -0.15300
C1030       C  0.78636872  0.12092906  0.67745335    -0.30400
H1031       H  0.80234651  0.06174130  0.68584005     0.13800
H1032       H  0.79359068  0.15212160  0.67957507     0.14300
C1033       C  0.13884384  0.11711482  0.78861741    -0.15300
C1034       C  0.16579022  0.14176625  0.79720816    -0.30400
H1035       H  0.12549043  0.09335609  0.79819228     0.13800
H1036       H  0.17915316  0.16461417  0.78695120     0.14300
C1037       C  0.18687251  0.09820466  0.68412561    -0.15300
C1038       C  0.20332245  0.12354407  0.66964101    -0.30400
H1039       H  0.20308633  0.07122934  0.68865373     0.13800
H1040       H  0.18832605  0.15176108  0.66633334     0.14300
C1041       C  0.14728987  0.34787887  0.79984829    -0.15300
C1042       C  0.12624558  0.37462369  0.78808799    -0.30400
H1043       H  0.15413897  0.31897785  0.79290880     0.13800
H1044       H  0.12113397  0.40462645  0.79394919     0.14300
C1045       C  0.18021343  0.37435001  0.68664521    -0.15300
C1046       C  0.19956981  0.34534488  0.67572677    -0.30400
H1047       H  0.19448065  0.40289244  0.68905099     0.13800
H1048       H  0.18551265  0.31640496  0.67448943     0.14300
C1049       C  0.83525556  0.36293987  0.78563436    -0.15300
C1050       C  0.81691456  0.33564754  0.79831827    -0.30400
H1051       H  0.83974054  0.39302942  0.79130522     0.13800
H1052       H  0.81090883  0.30626999  0.79196407     0.14300
C1053       C  0.78669156  0.35512668  0.68802717    -0.15300
C1054       C  0.75611983  0.32954963  0.69090717    -0.30400
H1055       H  0.78410876  0.38073783  0.67728779     0.13800
H1056       H  0.75983798  0.30574892  0.70276591     0.14300
C1057       C  0.65621869  0.62318315  0.29737587    -0.15300
C1058       C  0.62892787  0.60053952  0.28758026    -0.30400
H1059       H  0.67000655  0.64733086  0.28815104     0.13800
H1060       H  0.61582138  0.57488660  0.29577545     0.14300
C1061       C  0.67598803  0.74689126  0.35549902    -0.15300
C1062       C  0.68833268  0.71886720  0.34136806    -0.30400
H1063       H  0.66136115  0.73781427  0.37047186     0.13800
H1064       H  0.70418283  0.72766158  0.32677137     0.14300
C1065       C  0.64593654  0.83478355  0.30218906    -0.15300
C1066       C  0.62915494  0.86435745  0.29045402    -0.30400
H1067       H  0.64849311  0.80536694  0.29519495     0.13800
H1068       H  0.62793763  0.89454560  0.29650858     0.14300
C1069       C  0.63644368  0.55275600  0.38232385    -0.15300
C1070       C  0.63740062  0.59207057  0.37768061    -0.30400
H1071       H  0.65451252  0.53243876  0.37268622     0.13800
H1072       H  0.61988420  0.61197049  0.38788179     0.14300
C1073       C  0.59629896  0.55677531  0.46238714    -0.15300
C1074       C  0.62234381  0.58176709  0.47158464    -0.30400
H1075       H  0.57080441  0.54654214  0.47198892     0.13800
H1076       H  0.64916477  0.59153163  0.46300068     0.14300
C1077       C  0.47160238  0.53620035  0.40339246    -0.15300
C1078       C  0.49912814  0.52411586  0.41792269    -0.30400
H1079       H  0.48168174  0.54911192  0.38808547     0.13800
H1080       H  0.48895089  0.51180171  0.43326303     0.14300
C1081       C  0.38240825  0.55558797  0.45933673    -0.15300
C1082       C  0.35472515  0.57629270  0.47062408    -0.30400
H1083       H  0.41057201  0.54773370  0.46699145     0.13800
H1084       H  0.32592442  0.58390928  0.46368189     0.14300
C1085       C  0.38232906  0.90230171  0.45789239    -0.15300
C1086       C  0.36004702  0.87238064  0.46598381    -0.30400
H1087       H  0.40460787  0.91594451  0.46820455     0.13800
H1088       H  0.33719676  0.85827750  0.45629465     0.14300
C1089       C  0.62732832  0.89396125  0.38427063    -0.15300
C1090       C  0.66588947  0.89089947  0.37792225    -0.30400
H1091       H  0.60564990  0.87627229  0.37550791     0.13800
H1092       H  0.68860752  0.90856552  0.38583315     0.14300
C1093       C  0.50299204  0.94628323  0.42183604    -0.15300
C1094       C  0.47660749  0.93456094  0.40698360    -0.30400
H1095       H  0.49231941  0.95963610  0.43677778     0.13800
H1096       H  0.48772648  0.92216582  0.39191900     0.14300
C1097       C  0.59996557  0.90788921  0.46482683    -0.15300
C1098       C  0.62427017  0.88059818  0.47396058    -0.30400
H1099       H  0.57525962  0.92023435  0.47428557     0.13800
H1100       H  0.64993165  0.86860846  0.46522949     0.14300
C1101       C  0.32269642  0.59618941  0.37908622    -0.15300
C1102       C  0.32594739  0.55649338  0.38282031    -0.30400
H1103       H  0.33972610  0.61583875  0.38934210     0.13800
H1104       H  0.30854709  0.53617517  0.37316685     0.14300
C1105       C  0.34159019  0.60489961  0.28986298    -0.15300
C1106       C  0.31094992  0.62617392  0.29835777    -0.30400
H1107       H  0.35720740  0.58257661  0.29945640     0.13800
H1108       H  0.29554447  0.64758705  0.28803072     0.14300
C1109       C  0.30481538  0.89759294  0.37485727    -0.15300
C1110       C  0.34432327  0.90034830  0.37851747    -0.30400
H1111       H  0.28348624  0.91455547  0.38456933     0.13800
H1112       H  0.36398389  0.88307011  0.36793250     0.14300
C1113       C  0.29116469  0.75302942  0.35457172    -0.15300
C1114       C  0.27592739  0.72469699  0.34175096    -0.30400
H1115       H  0.30777033  0.74415488  0.36883218     0.13800
H1116       H  0.25869382  0.73351091  0.32776734     0.14300
C1117       C  0.31412478  0.84096636  0.29832417    -0.15300
C1118       C  0.33731199  0.86751219  0.28763652    -0.30400
H1119       H  0.30575333  0.81387918  0.29009914     0.13800
H1120       H  0.34590117  0.89515112  0.29518024     0.14300
C1121       C  0.15038176  0.62648077  0.21214389    -0.15300
C1122       C  0.12943758  0.59885414  0.22340129    -0.30400
H1123       H  0.15582758  0.65503190  0.21961517     0.13800
H1124       H  0.12468731  0.56949372  0.21679835     0.14300
C1125       C  0.19139824  0.62459133  0.33833464    -0.15300
C1126       C  0.17384466  0.59641079  0.32643598    -0.30400
H1127       H  0.17643204  0.65335523  0.33998475     0.13800
H1128       H  0.18955362  0.56838701  0.32357908     0.14300
C1129       C  0.81682299  0.62096907  0.23075276    -0.15300
C1130       C  0.83468529  0.61226892  0.21177780    -0.30400
H1131       H  0.78622386  0.63164971  0.23140078     0.13800
H1132       H  0.86549298  0.60168291  0.21163200     0.14300
C1133       C  0.79273877  0.59242252  0.32820447    -0.15300
C1134       C  0.77245918  0.61881694  0.34046027    -0.30400
H1135       H  0.77881244  0.56432132  0.32412517     0.13800
H1136       H  0.78598300  0.64752473  0.34351387     0.14300
C1137       C  0.83332108  0.86078676  0.21762476    -0.15300
C1138       C  0.81260251  0.83263091  0.20734866    -0.30400
H1139       H  0.84030678  0.88896140  0.20958515     0.13800
H1140       H  0.80470803  0.80526755  0.21598949     0.14300
C1141       C  0.79762838  0.86059284  0.32195116    -0.15300
C1142       C  0.77206058  0.83108478  0.32721226    -0.30400
H1143       H  0.79196296  0.89085590  0.32704317     0.13800
H1144       H  0.77761566  0.80151840  0.32093343     0.14300
C1145       C  0.13044524  0.86123416  0.21951739    -0.15300
C1146       C  0.15839286  0.83755267  0.21051882    -0.30400
H1147       H  0.11738965  0.88606431  0.21064016     0.13800
H1148       H  0.17166222  0.81368810  0.22018293     0.14300
C1149       C  0.19180263  0.83607518  0.33135423    -0.15300
C1150       C  0.16807617  0.86501427  0.32324593    -0.30400
H1151       H  0.18395193  0.80516507  0.32878301     0.13800
H1152       H  0.17702279  0.89595821  0.32406076     0.14300
C1153       C  0.62048678  0.37005782  0.54135493    -0.15300
C1154       C  0.59916666  0.40012478  0.55013116    -0.30400
H1155       H  0.64346988  0.35457476  0.55052456     0.13800
H1156       H  0.57711549  0.41560756  0.54024876     0.14300
C1157       C  0.59368712  0.43438505  0.42919348    -0.15300
C1158       C  0.62397566  0.41268435  0.43765059    -0.30400
H1159       H  0.56318295  0.42393624  0.43134539     0.13800
H1160       H  0.65429592  0.42409203  0.43732560     0.14300
C1161       C  0.38919483  0.39718560  0.55289518    -0.15300
C1162       C  0.36183625  0.37373223  0.54344272    -0.30400
H1163       H  0.41517341  0.40649480  0.54347370     0.13800
H1164       H  0.33518265  0.36415420  0.55214378     0.14300
C1165       C  0.35494311  0.41756402  0.43647091    -0.15300
C1166       C  0.38438311  0.43783327  0.42616558    -0.30400
H1167       H  0.32440818  0.42909438  0.43628398     0.13800
H1168       H  0.41508678  0.42727878  0.42787460     0.14300
C1169       C  0.61144686  0.08017878  0.54381283    -0.15300
C1170       C  0.58539180  0.05542349  0.55368401    -0.30400
H1171       H  0.63797510  0.09022320  0.55204711     0.13800
H1172       H  0.55964391  0.04517751  0.54476862     0.14300
C1173       C  0.63075000  0.03685266  0.44283206    -0.15300
C1174       C  0.61079439  0.02548822  0.42523630    -0.30400
H1175       H  0.65190854  0.01631427  0.45029900     0.13800
H1176       H  0.58871034  0.04539754  0.41807188     0.14300
C1177       C  0.35027343  0.07408120  0.53736378    -0.15300
C1178       C  0.37400897  0.04547417  0.54599261    -0.30400
H1179       H  0.32455922  0.08561696  0.54625428     0.13800
H1180       H  0.39889284  0.03404619  0.53634839     0.14300
C1181       C  0.34929954  0.04285443  0.43486318    -0.15300
C1182       C  0.37834714  0.02492637  0.42310011    -0.30400
H1183       H  0.32041975  0.02835638  0.43706603     0.13800
H1184       H  0.40790309  0.03845140  0.42238124     0.14300
loop_ 
_geom_bond_atom_site_label_1 
_geom_bond_atom_site_label_2 
_geom_bond_distance 
_geom_bond_site_symmetry_2 
_ccdc_geom_bond_type 
In1           O3   2.247       .  S
In1           O4   2.292       .  S
In1          O12   2.278       .  S
In1           O6   2.232       .  S
In1           O8   2.230       .  S
In1           O9   2.301       .  S
In1          O10   2.265       .  S
In1          O13   2.248       .  S
C2            O8   1.258       .  A
C2           O10   1.261       .  A
C2           C15   1.461       .  S
O3           C11   1.256       .  A
O4           C11   1.262       .  A
C5           O12   1.266       .  A
C5            O6   1.260       .  A
C5         C1177   1.484       .  S
C7            O9   1.262       .  A
C7           O13   1.256       .  A
C7           C37   1.479       .  S
C11        C1181   1.488       .  S
In14         O16   2.220       .  S
In14         O17   2.296       .  S
In14         O25   2.261       .  S
In14         O19   2.229       .  S
In14         O21   2.231       .  S
In14         O22   2.264       .  S
In14         O23   2.267       .  S
In14         O26   2.255       .  S
C15          O21   1.257       .  A
C15          O23   1.261       .  A
O16          C24   1.254       .  A
O17          C24   1.261       .  A
C18          O25   1.265       .  A
C18          O19   1.263       .  A
C18        C1169   1.479       .  S
C20          O22   1.258       .  A
C20          O26   1.257       .  A
C20        C1173   1.476       .  S
C24          C46   1.467       .  S
In27         O29   2.246       .  S
In27         O30   2.295       .  S
In27         O38   2.292       .  S
In27         O32   2.229       .  S
In27         O34   2.222       .  S
In27         O35   2.303       .  S
In27         O36   2.260       .  S
In27         O39   2.253       .  S
C28          O34   1.257       .  A
C28          O36   1.261       .  A
C28          C41   1.456       .  S
O29          C37   1.258       .  A
O30          C37   1.263       .  A
C31          O38   1.266       .  A
C31          O32   1.257       .  A
C31        C1162   1.485       .  S
C33          O35   1.264       .  A
C33          O39   1.255       .  A
C33        C1165   1.493       .  S
In40         O42   2.228       .  S
In40         O43   2.291       .  S
In40         O51   2.263       .  S
In40         O45   2.235       .  S
In40         O47   2.225       .  S
In40         O48   2.291       .  S
In40         O49   2.258       .  S
In40         O52   2.214       .  S
C41          O47   1.258       .  A
C41          O49   1.261       .  A
O42          C50   1.256       .  A
O43          C50   1.263       .  A
C44          O51   1.263       .  A
C44          O45   1.260       .  A
C44        C1153   1.479       .  S
C46          O48   1.265       .  A
C46          O52   1.256       .  A
C50        C1158   1.485       .  S
In53         O55   2.279       .  S
In53         O56   2.230       .  S
In53         O64   2.260       .  S
In53         O58   2.213       .  S
In53         O60   2.255       .  S
In53         O61   2.263       .  S
In53         O62   2.227       .  S
In53         O65   2.209       .  S
C54          O60   1.261       .  A
C54          O62   1.260       .  A
C54          C93   1.458       .  S
O55          C63   1.260       .  A
O56          C63   1.255       .  A
C57          O64   1.261       .  A
C57          O58   1.259       .  A
C57        C1145   1.470       .  S
C59          O61   1.264       .  A
C59          O65   1.257       .  A
C59          C76   1.459   1_455  S
C63        C1150   1.479       .  S
In66         O68   2.219       .  S
In66         O69   2.270       .  S
In66         O77   2.276       .  S
In66         O71   2.221       .  S
In66         O73   2.224       .  S
In66         O74   2.292       .  S
In66         O75   2.243       .  S
In66         O78   2.201       .  S
C67          O73   1.260       .  A
C67          O75   1.261       .  A
C67          C80   1.453       .  S
O68          C76   1.255       .  A
O69          C76   1.261       .  A
C70          O77   1.264       .  A
C70          O71   1.258       .  A
C70        C1137   1.477       .  S
C72          O74   1.265       .  A
C72          O78   1.255       .  A
C72        C1141   1.482       .  S
In79         O81   2.240       .  S
In79         O82   2.281       .  S
In79         O90   2.228       .  S
In79         O84   2.261       .  S
In79         O86   2.232       .  S
In79         O87   2.275       .  S
In79         O88   2.255       .  S
In79         O91   2.256       .  S
C80          O86   1.254       .  A
C80          O88   1.259       .  A
O81          C89   1.258       .  A
O82          C89   1.264       .  A
C83          O90   1.260       .  A
C83          O84   1.265       .  A
C83        C1129   1.470       .  S
C85          O87   1.260       .  A
C85          O91   1.257       .  A
C85         C102   1.475   1_655  S
C89        C1133   1.485       .  S
In92         O94   2.262       .  S
In92         O95   2.282       .  S
In92        O103   2.283       .  S
In92         O97   2.232       .  S
In92         O99   2.263       .  S
In92        O100   2.290       .  S
In92        O101   2.229       .  S
In92        O104   2.260       .  S
C93          O99   1.260       .  A
C93         O101   1.257       .  A
O94         C102   1.258       .  A
O95         C102   1.260       .  A
C96         O103   1.267       .  A
C96          O97   1.259       .  A
C96        C1122   1.486       .  S
C98         O100   1.260       .  A
C98         O104   1.255       .  A
C98        C1126   1.488       .  S
C105        C106   1.546       .  S
C105        C111   1.546       .  S
C105        C109   1.542       .  S
C105       C1109   1.527       .  S
C106        H113   1.085       .  S
C106        C107   1.369       .  D
C107        C108   1.538       .  S
C107       C1117   1.492       .  S
C108        C112   1.541       .  S
C108        C110   1.535       .  S
C108        H114   1.107       .  S
C109        H115   1.085       .  S
C109        C110   1.369       .  D
C110       C1149   1.476       .  S
C111        H116   1.088       .  S
C111        C112   1.366       .  D
C112       C1113   1.502       .  S
C117        C118   1.552       .  S
C117        C123   1.543       .  S
C117        C121   1.549       .  S
C117       C1101   1.531       .  S
C118        H125   1.084       .  S
C118        C119   1.370       .  D
C119        C120   1.533       .  S
C119       C1114   1.498       .  S
C120        C124   1.536       .  S
C120        C122   1.533       .  S
C120        H126   1.112       .  S
C121        H127   1.085       .  S
C121        C122   1.372       .  D
C122       C1125   1.484       .  S
C123        H128   1.084       .  S
C123        C124   1.371       .  D
C124       C1106   1.490       .  S
C129        C130   1.538       .  S
C129        C135   1.541       .  S
C129        C133   1.544       .  S
C129       C1089   1.522       .  S
C130        H137   1.085       .  S
C130        C131   1.368       .  D
C131        C132   1.530       .  S
C131       C1093   1.496       .  S
C132        C136   1.533       .  S
C132        C134   1.533       .  S
C132        H138   1.112       .  S
C133        H139   1.086       .  S
C133        C134   1.370       .  D
C134       C1174   1.475   1_565  S
C135        H140   1.082       .  S
C135        C136   1.372       .  D
C136       C1097   1.478       .  S
C141        C142   1.537       .  S
C141        C147   1.533       .  S
C141        C145   1.548       .  S
C141       C1110   1.522       .  S
C142        H149   1.083       .  S
C142        C143   1.372       .  D
C143        C144   1.540       .  S
C143       C1085   1.485       .  S
C144        C148   1.537       .  S
C144        C146   1.541       .  S
C144        H150   1.110       .  S
C145        H151   1.089       .  S
C145        C146   1.376       .  D
C146       C1182   1.483   1_565  S
C147        H152   1.091       .  S
C147        C148   1.355       .  D
C148       C1094   1.484       .  S
C153        C154   1.546       .  S
C153        C159   1.542       .  S
C153        C157   1.552       .  S
C153       C1102   1.533       .  S
C154        H161   1.088       .  S
C154        C155   1.368       .  D
C155        C156   1.546       .  S
C155       C1077   1.507       .  S
C156        C160   1.534       .  S
C156        C158   1.533       .  S
C156        H162   1.106       .  S
C157        H163   1.088       .  S
C157        C158   1.372       .  D
C158       C1166   1.490       .  S
C159        H164   1.086       .  S
C159        C160   1.368       .  D
C160       C1081   1.481       .  S
C165        C166   1.548       .  S
C165        C171   1.555       .  S
C165        C169   1.549       .  S
C165       C1069   1.528       .  S
C166        H173   1.085       .  S
C166        C167   1.368       .  D
C167        C168   1.532       .  S
C167       C1073   1.485       .  S
C168        C172   1.533       .  S
C168        C170   1.529       .  S
C168        H174   1.113       .  S
C169        H175   1.084       .  S
C169        C170   1.367       .  D
C170       C1157   1.479       .  S
C171        H176   1.083       .  S
C171        C172   1.373       .  D
C172       C1078   1.497       .  S
C177        C178   1.546       .  S
C177        C183   1.547       .  S
C177        C181   1.542       .  S
C177       C1090   1.525       .  S
C178        H185   1.086       .  S
C178        C179   1.366       .  D
C179        C180   1.538       .  S
C179       C1061   1.498       .  S
C180        C184   1.532       .  S
C180        C182   1.535       .  S
C180        H186   1.106       .  S
C181        H187   1.088       .  S
C181        C182   1.368       .  D
C182       C1142   1.477       .  S
C183        H188   1.089       .  S
C183        C184   1.368       .  D
C184       C1065   1.483       .  S
C189        C190   1.543       .  S
C189        C195   1.548       .  S
C189        C193   1.548       .  S
C189       C1070   1.526       .  S
C190        H197   1.083       .  S
C190        C191   1.371       .  D
C191        C192   1.535       .  S
C191       C1057   1.484       .  S
C192        C196   1.532       .  S
C192        C194   1.532       .  S
C192        H198   1.112       .  S
C193        H199   1.086       .  S
C193        C194   1.369       .  D
C194       C1134   1.481       .  S
C195        H200   1.086       .  S
C195        C196   1.368       .  D
C196       C1062   1.493       .  S
In201       O203   2.210       .  S
In201       O204   2.306       .  S
In201       O212   2.261       .  S
In201       O206   2.227       .  S
In201       O208   2.214       .  S
In201       O209   2.291       .  S
In201       O210   2.256       .  S
In201       O213   2.235       .  S
C202        O208   1.258       .  A
C202        O210   1.262       .  A
C202        C241   1.455       .  S
O203        C211   1.255       .  A
O204        C211   1.265       .  A
C205        O212   1.265       .  A
C205        O206   1.259       .  A
C205       C1049   1.475       .  S
C207        O209   1.263       .  A
C207        O213   1.256       .  A
C207        C224   1.474   1_655  S
C211       C1053   1.488       .  S
In214       O216   2.239       .  S
In214       O217   2.294       .  S
In214       O225   2.280       .  S
In214       O219   2.226       .  S
In214       O221   2.252       .  S
In214       O222   2.232       .  S
In214       O223   2.233       .  S
In214       O226   2.301       .  S
C215        O221   1.262       .  A
C215        O223   1.260       .  A
C215        C228   1.460       .  S
O216        C224   1.257       .  A
O217        C224   1.262       .  A
C218        O225   1.265       .  A
C218        O219   1.259       .  A
C218       C1042   1.481       .  S
C220        O222   1.253       .  A
C220        O226   1.262       .  A
C220       C1045   1.486       .  S
In227       O229   2.259       .  S
In227       O230   2.280       .  S
In227       O238   2.266       .  S
In227       O232   2.225       .  S
In227       O234   2.261       .  S
In227       O235   2.287       .  S
In227       O236   2.242       .  S
In227       O239   2.226       .  S
C228        O234   1.258       .  A
C228        O236   1.257       .  A
O229        C237   1.257       .  A
O230        C237   1.260       .  A
C231        O238   1.264       .  A
C231        O232   1.261       .  A
C231       C1033   1.479       .  S
C233        O235   1.264       .  A
C233        O239   1.256       .  A
C233        C250   1.469   1_455  S
C237       C1037   1.485       .  S
In240       O242   2.231       .  S
In240       O243   2.289       .  S
In240       O251   2.276       .  S
In240       O245   2.221       .  S
In240       O247   2.217       .  S
In240       O248   2.290       .  S
In240       O249   2.257       .  S
In240       O252   2.225       .  S
C241        O247   1.258       .  A
C241        O249   1.262       .  A
O242        C250   1.255       .  A
O243        C250   1.261       .  A
C244        O251   1.265       .  A
C244        O245   1.259       .  A
C244       C1025   1.480       .  S
C246        O248   1.265       .  A
C246        O252   1.256       .  A
C246       C1029   1.486       .  S
In253       O255   2.230       .  S
In253       O256   2.290       .  S
In253       O264   2.264       .  S
In253       O258   2.213       .  S
In253       O260   2.235       .  S
In253       O261   2.283       .  S
In253       O262   2.261       .  S
In253       O265   2.247       .  S
C254        O260   1.258       .  A
C254        O262   1.262       .  A
C254        C267   1.462       .  S
O255        C263   1.255       .  A
O256        C263   1.263       .  A
C257        O264   1.263       .  A
C257        O258   1.260       .  A
C257       C1098   1.474       .  S
C259        O261   1.261       .  A
C259        O265   1.257       .  A
C259       C1021   1.486       .  S
C263        C285   1.471       .  S
In266       O268   2.220       .  S
In266       O269   2.266       .  S
In266       O277   2.255       .  S
In266       O271   2.221       .  S
In266       O273   2.235       .  S
In266       O274   2.276       .  S
In266       O275   2.260       .  S
In266       O278   2.204       .  S
C267        O273   1.258       .  A
C267        O275   1.260       .  A
O268        C276   1.256       .  A
O269        C276   1.259       .  A
C270        O277   1.264       .  A
C270        O271   1.262       .  A
C270       C1086   1.474       .  S
C272        O274   1.261       .  A
C272        O278   1.255       .  A
C272        C293   1.457       .  S
C276       C1017   1.471       .  S
In279       O281   2.227       .  S
In279       O282   2.311       .  S
In279       O290   2.292       .  S
In279       O284   2.212       .  S
In279       O286   2.220       .  S
In279       O287   2.291       .  S
In279       O288   2.251       .  S
In279       O291   2.228       .  S
C280        O286   1.258       .  A
C280        O288   1.261       .  A
C280        C302   1.453       .  S
O281        C289   1.250       .  A
O282        C289   1.265       .  A
C283        O290   1.267       .  A
C283        O284   1.258       .  A
C283       C1074   1.484       .  S
C285        O287   1.263       .  A
C285        O291   1.255       .  A
C289       C1013   1.479       .  S
In292       O294   2.248       .  S
In292       O295   2.216       .  S
In292       O303   2.281       .  S
In292       O297   2.218       .  S
In292       O299   2.272       .  S
In292       O300   2.219       .  S
In292       O301   2.203       .  S
In292       O304   2.267       .  S
C293        O299   1.263       .  A
C293        O301   1.255       .  A
O294        C302   1.263       .  A
O295        C302   1.260       .  A
C296        O303   1.261       .  A
C296        O297   1.254       .  A
C296       C1009   1.476       .  S
C298        O300   1.258       .  A
C298        O304   1.262       .  A
C298       C1082   1.476       .  S
C305        C306   1.543       .  S
C305        C311   1.543       .  S
C305        C309   1.548       .  S
C305        C998   1.529       .  S
C306        H313   1.087       .  S
C306        C307   1.362       .  D
C307        C308   1.538       .  S
C307       C1001   1.493       .  S
C308        C312   1.534       .  S
C308        C310   1.536       .  S
C308        H314   1.109       .  S
C309        H315   1.085       .  S
C309        C310   1.375       .  D
C310       C1030   1.481       .  S
C311        H316   1.085       .  S
C311        C312   1.364       .  D
C312       C1005   1.484       .  S
C317        C318   1.540       .  S
C317        C323   1.545       .  S
C317        C321   1.553       .  S
C317        C990   1.525       .  S
C318        H325   1.086       .  S
C318        C319   1.360       .  D
C319        C320   1.530       .  S
C319        C993   1.474       .  S
C320        C324   1.535       .  S
C320        C322   1.534       .  S
C320        H326   1.112       .  S
C321        H327   1.085       .  S
C321        C322   1.375       .  D
C322       C1054   1.486       .  S
C323        H328   1.084       .  S
C323        C324   1.369       .  D
C324       C1002   1.492       .  S
C329        C330   1.546       .  S
C329        C335   1.538       .  S
C329        C333   1.546   1_545  S
C329        C997   1.520       .  S
C330        H337   1.087       .  S
C330        C331   1.359       .  D
C331        C332   1.540       .  S
C331        C985   1.498       .  S
C332        C336   1.537       .  S
C332        C334   1.536   1_545  S
C332        H338   1.107   1_545  S
C333        H339   1.085       .  S
C333        C334   1.374       .  D
C334       C1022   1.482       .  S
C335        H340   1.085       .  S
C335        C336   1.370       .  D
C336       C1170   1.485       .  S
C341        C342   1.547       .  S
C341        C347   1.550       .  S
C341        C345   1.535   1_545  S
C341        C981   1.518       .  S
C342        H349   1.085       .  S
C342        C343   1.368       .  D
C343        C344   1.535   1_545  S
C343       C1178   1.490       .  S
C344        C348   1.532   1_565  S
C344        C346   1.533       .  S
C344        H350   1.112       .  S
C345        H351   1.086       .  S
C345        C346   1.361       .  D
C346       C1018   1.465       .  S
C347        H352   1.085       .  S
C347        C348   1.372       .  D
C348        C986   1.494       .  S
C353        C354   1.537       .  S
C353        C359   1.535       .  S
C353        C357   1.546       .  S
C353        C982   1.513       .  S
C354        H361   1.085       .  S
C354        C355   1.370       .  D
C355        C356   1.538       .  S
C355        C977   1.481       .  S
C356        C360   1.539       .  S
C356        C358   1.537       .  S
C356        H362   1.109       .  S
C357        H363   1.086       .  S
C357        C358   1.372       .  D
C358       C1038   1.481       .  S
C359        H364   1.087       .  S
C359        C360   1.357       .  D
C360        C974   1.487       .  S
C365        C366   1.542       .  S
C365        C371   1.540       .  S
C365        C369   1.546       .  S
C365        C965   1.516       .  S
C366        H373   1.083       .  S
C366        C367   1.365       .  D
C367        C368   1.530       .  S
C367        C973   1.494       .  S
C368        C372   1.536       .  S
C368        C370   1.535       .  S
C368        H374   1.112       .  S
C369        H375   1.086       .  S
C369        C370   1.371       .  D
C370       C1046   1.479       .  S
C371        H376   1.085       .  S
C371        C372   1.369       .  D
C372        C969   1.481       .  S
C377        C378   1.550       .  S
C377        C383   1.547       .  S
C377        C381   1.542       .  S
C377        C989   1.530       .  S
C378        H385   1.081       .  S
C378        C379   1.372       .  D
C379        C380   1.534       .  S
C379       C1154   1.487       .  S
C380        C384   1.535       .  S
C380        C382   1.537       .  S
C380        H386   1.112       .  S
C381        H387   1.086       .  S
C381        C382   1.364       .  D
C382       C1014   1.485       .  S
C383        H388   1.085       .  S
C383        C384   1.371       .  D
C384        C961   1.498       .  S
C389        C390   1.544       .  S
C389        C395   1.543       .  S
C389        C393   1.541       .  S
C389        C966   1.521       .  S
C390        H397   1.086       .  S
C390        C391   1.365       .  D
C391        C392   1.542       .  S
C391        C962   1.499       .  S
C392        C396   1.542       .  S
C392        C394   1.535       .  S
C392        H398   1.109       .  S
C393        H399   1.086       .  S
C393        C394   1.368       .  D
C394       C1010   1.474       .  S
C395        H400   1.085       .  S
C395        C396   1.367       .  D
C396       C1161   1.491       .  S
In401       O403   2.266       .  S
In401       O404   2.293       .  S
In401       O412   2.277       .  S
In401       O406   2.236       .  S
In401       O408   2.233       .  S
In401       O409   2.308       .  S
In401       O410   2.277       .  S
In401       O413   2.236       .  S
C402        O408   1.258       .  A
C402        O410   1.262       .  A
C402        C441   1.468       .  S
O403        C411   1.257       .  A
O404        C411   1.261       .  A
C405        O412   1.265       .  A
C405        O406   1.261       .  A
C405       C1118   1.485       .  S
C407        O409   1.264       .  A
C407        O413   1.255       .  A
C407        C424   1.478       .  S
C411        C957   1.492       .  S
In414       O416   2.235       .  S
In414       O417   2.302       .  S
In414       O425   2.277       .  S
In414       O419   2.225       .  S
In414       O421   2.248       .  S
In414       O422   2.258       .  S
In414       O423   2.244       .  S
In414       O426   2.281       .  S
C415        O421   1.260       .  A
C415        O423   1.260       .  A
C415        C428   1.460       .  S
O416        C424   1.256       .  A
O417        C424   1.264       .  A
C418        O425   1.265       .  A
C418        O419   1.260       .  A
C418       C1066   1.482       .  S
C420        O422   1.257       .  A
C420        O426   1.260       .  A
C420        C953   1.485       .  S
In427       O429   2.255       .  S
In427       O430   2.263       .  S
In427       O438   2.272       .  S
In427       O432   2.216       .  S
In427       O434   2.254       .  S
In427       O435   2.290       .  S
In427       O436   2.248       .  S
In427       O439   2.207       .  S
C428        O434   1.257       .  A
C428        O436   1.257       .  A
O429        C437   1.259       .  A
O430        C437   1.257       .  A
C431        O438   1.266       .  A
C431        O432   1.261       .  A
C431       C1058   1.479       .  S
C433        O435   1.265       .  A
C433        O439   1.256       .  A
C433        C450   1.466       .  S
C437        C949   1.478       .  S
In440       O442   2.212       .  S
In440       O443   2.293       .  S
In440       O451   2.273       .  S
In440       O445   2.239       .  S
In440       O447   2.235       .  S
In440       O448   2.223       .  S
In440       O449   2.279       .  S
In440       O452   2.287       .  S
C441        O447   1.258       .  A
C441        O449   1.262       .  A
O442        C450   1.256       .  A
O443        C450   1.263       .  A
C444        O451   1.263       .  A
C444        O445   1.260       .  A
C444       C1105   1.483       .  S
C446        O448   1.255       .  A
C446        O452   1.261       .  A
C446        C945   1.479       .  S
In453       O455   2.218       .  S
In453       O456   2.281       .  S
In453       O464   2.265       .  S
In453       O458   2.219       .  S
In453       O460   2.226       .  S
In453       O461   2.285       .  S
In453       O462   2.258       .  S
In453       O465   2.225       .  S
C454        O460   1.255       .  A
C454        O462   1.260       .  A
C454        C467   1.455   1_455  S
O455        C463   1.258       .  A
O456        C463   1.267       .  A
C457        O464   1.264       .  A
C457        O458   1.256       .  A
C457        C937   1.467   1_554  S
C459        O461   1.264       .  A
C459        O465   1.256       .  A
C459        C489   1.469       .  S
C463        C942   1.485       .  S
In466       O468   2.226       .  S
In466       O469   2.269       .  S
In466       O477   2.265       .  S
In466       O471   2.208       .  S
In466       O473   2.225       .  S
In466       O474   2.217       .  S
In466       O475   2.253       .  S
In466       O478   2.296       .  S
C467        O473   1.257       .  A
C467        O475   1.260       .  A
O468        C476   1.255       .  A
O469        C476   1.261       .  A
C470        O477   1.265   1_556  A
C470        O471   1.260   1_556  A
C470        C929   1.473       .  S
C472        O474   1.254       .  A
C472        O478   1.263       .  A
C472        C934   1.483       .  S
C476        C498   1.462       .  S
In479       O481   2.233       .  S
In479       O482   2.292       .  S
In479       O490   2.265   1_554  S
In479       O484   2.222       .  S
In479       O486   2.240       .  S
In479       O487   2.280       .  S
In479       O488   2.257       .  S
In479       O491   2.248       .  S
C480        O486   1.257       .  A
C480        O488   1.260       .  A
C480        C493   1.461   1_455  S
O481        C489   1.253       .  A
O482        C489   1.260       .  A
C483        O490   1.266       .  A
C483        O484   1.262   1_556  A
C483        C921   1.478       .  S
C485        O487   1.262       .  A
C485        O491   1.257       .  A
C485        C925   1.483       .  S
In492       O494   2.205       .  S
In492       O495   2.286       .  S
In492       O503   2.258       .  S
In492       O497   2.227       .  S
In492       O499   2.234       .  S
In492       O500   2.273       .  S
In492       O501   2.252       .  S
In492       O504   2.227       .  S
C493        O499   1.260       .  A
C493        O501   1.262       .  A
O494        C502   1.255       .  A
O495        C502   1.263       .  A
C496        O503   1.263   1_556  A
C496        O497   1.260   1_556  A
C496        C913   1.474       .  S
C498        O500   1.261       .  A
C498        O504   1.255       .  A
C502        C917   1.477       .  S
C505        C506   1.535       .  S
C505        C511   1.540       .  S
C505        C509   1.547       .  S
C505        C905   1.519       .  S
C506        H513   1.085       .  S
C506        C507   1.354       .  D
C507        C508   1.531       .  S
C507        C909   1.475       .  S
C508        C512   1.535       .  S
C508        C510   1.538       .  S
C508        H514   1.112       .  S
C509        H515   1.085       .  S
C509        C510   1.376       .  D
C510        C954   1.480       .  S
C511        H516   1.085       .  S
C511        C512   1.370       .  D
C512       C1138   1.480       .  S
C517        C518   1.540       .  S
C517        C523   1.529       .  S
C517        C521   1.545       .  S
C517        C901   1.513       .  S
C518        H525   1.082       .  S
C518        C519   1.368       .  D
C519        C520   1.543       .  S
C519       C1130   1.489       .  S
C520        C524   1.535       .  S
C520        C522   1.534       .  S
C520        H526   1.107       .  S
C521        H527   1.085       .  S
C521        C522   1.371       .  D
C522        C950   1.476       .  S
C523        H528   1.087       .  S
C523        C524   1.363       .  D
C524        C910   1.488       .  S
C529        C530   1.545       .  S
C529        C535   1.547       .  S
C529        C533   1.544       .  S
C529        C890   1.523       .  S
C530        H537   1.080       .  S
C530        C531   1.365       .  D
C531        C532   1.532       .  S
C531        C893   1.492   1_455  S
C532        C536   1.534       .  S
C532        C534   1.534       .  S
C532        H538   1.112       .  S
C533        H539   1.089       .  S
C533        C534   1.369       .  D
C534        C926   1.480       .  S
C535        H540   1.083       .  S
C535        C536   1.374       .  D
C536        C897   1.488       .  S
C541        C542   1.549       .  S
C541        C547   1.542       .  S
C541        C545   1.540       .  S
C541        C902   1.517       .  S
C542        H549   1.083       .  S
C542        C543   1.370       .  D
C543        C544   1.541       .  S
C543        C885   1.493       .  S
C544        C548   1.537       .  S
C544        C546   1.535       .  S
C544        H550   1.111       .  S
C545        H551   1.086       .  S
C545        C546   1.367       .  D
C546        C918   1.474       .  S
C547        H552   1.088       .  S
C547        C548   1.362       .  D
C548        C894   1.491       .  S
C553        C554   1.546       .  S
C553        C559   1.558       .  S
C553        C557   1.549       .  S
C553        C873   1.528       .  S
C554        H561   1.087       .  S
C554        C555   1.365       .  D
C555        C556   1.530       .  S
C555        C881   1.481       .  S
C556        C560   1.529       .  S
C556        C558   1.532       .  S
C556        H562   1.112       .  S
C557        H563   1.084       .  S
C557        C558   1.368       .  D
C558        C941   1.483   1_565  S
C559        H564   1.086       .  S
C559        C560   1.373       .  D
C560        C877   1.495       .  S
C565        C566   1.547       .  S
C565        C571   1.549       .  S
C565        C569   1.541       .  S
C565        C906   1.525       .  S
C566        H573   1.085       .  S
C566        C567   1.365       .  D
C567        C568   1.545       .  S
C567        C878   1.506       .  S
C568        C572   1.534       .  S
C568        C570   1.534       .  S
C568        H574   1.107       .  S
C569        H575   1.085       .  S
C569        C570   1.368       .  D
C570        C933   1.478   1_565  S
C571        H576   1.081       .  S
C571        C572   1.368       .  D
C572        C869   1.486       .  S
C577        C578   1.538       .  S
C577        C583   1.551       .  S
C577        C581   1.551       .  S
C577        C874   1.525       .  S
C578        H585   1.078       .  S
C578        C579   1.369       .  D
C579        C580   1.530       .  S
C579       C1146   1.474       .  S
C580        C584   1.532       .  S
C580        C582   1.531       .  S
C580        H586   1.113       .  S
C581        H587   1.083       .  S
C581        C582   1.373       .  D
C582        C958   1.488       .  S
C583        H588   1.079       .  S
C583        C584   1.370       .  D
C584        C865   1.495       .  S
C589        C590   1.543       .  S
C589        C595   1.546       .  S
C589        C593   1.543       .  S
C589        C889   1.526       .  S
C590        H597   1.087       .  S
C590        C591   1.363       .  D
C591        C592   1.541       .  S
C591        C866   1.498       .  S
C592        C596   1.539       .  S
C592        C594   1.537       .  S
C592        H598   1.109       .  S
C593        H599   1.084       .  S
C593        C594   1.369       .  D
C594        C946   1.477       .  S
C595        H600   1.086       .  S
C595        C596   1.370       .  D
C596       C1121   1.491       .  S
In601       O603   2.225       .  S
In601       O604   2.283       .  S
In601       O612   2.263       .  S
In601       O606   2.224       .  S
In601       O608   2.212       .  S
In601       O609   2.280       .  S
In601       O610   2.256       .  S
In601       O613   2.237       .  S
C602        O608   1.256       .  A
C602        O610   1.261       .  A
C602        C641   1.449       .  S
O603        C611   1.254       .  A
O604        C611   1.267       .  A
C605        O612   1.265       .  A
C605        O606   1.260       .  A
C605        C994   1.473       .  S
C607        O609   1.261       .  A
C607        O613   1.255       .  A
C607        C615   1.468       .  S
C611        C861   1.474       .  S
In614       O616   2.254       .  S
In614       O617   2.236       .  S
In614       O625   2.216       .  S
In614       O619   2.301       .  S
In614       O621   2.278       .  S
In614       O622   2.209       .  S
In614       O623   2.237       .  S
In614       O626   2.283       .  S
C615        O621   1.261       .  A
C615        O623   1.257       .  A
O616        C624   1.260       .  A
O617        C624   1.258       .  A
C618        O625   1.250       .  A
C618        O619   1.264       .  A
C618        C857   1.472       .  S
C620        O622   1.259       .  A
C620        O626   1.266       .  A
C620        C970   1.480       .  S
C624        C628   1.458       .  S
In627       O629   2.239       .  S
In627       O630   2.287       .  S
In627       O638   2.268       .  S
In627       O632   2.219       .  S
In627       O634   2.233       .  S
In627       O635   2.293       .  S
In627       O636   2.253       .  S
In627       O639   2.227       .  S
C628        O634   1.258       .  A
C628        O636   1.261       .  A
O629        C637   1.254       .  A
O630        C637   1.261       .  A
C631        O638   1.265       .  A
C631        O632   1.260       .  A
C631        C978   1.476       .  S
C633        O635   1.262       .  A
C633        O639   1.255       .  A
C633        C650   1.470       .  S
C637        C853   1.482       .  S
In640       O642   2.222       .  S
In640       O643   2.292       .  S
In640       O651   2.274       .  S
In640       O645   2.219       .  S
In640       O647   2.209       .  S
In640       O648   2.306       .  S
In640       O649   2.248       .  S
In640       O652   2.235       .  S
C641        O647   1.259       .  A
C641        O649   1.261       .  A
O642        C650   1.256       .  A
O643        C650   1.265       .  A
C644        O651   1.266       .  A
C644        O645   1.259       .  A
C644       C1006   1.478       .  S
C646        O648   1.265       .  A
C646        O652   1.252       .  A
C646        C849   1.490       .  S
In653       O655   2.284       .  S
In653       O656   2.244       .  S
In653       O664   2.281   1_556  S
In653       O658   2.193   1_556  S
In653       O660   2.234       .  S
In653       O661   2.294       .  S
In653       O662   2.259       .  S
In653       O665   2.210       .  S
C654        O660   1.255       .  A
C654        O662   1.258       .  A
C654        C667   1.456   1_455  S
O655        C663   1.258       .  A
O656        C663   1.257       .  A
C657        O664   1.270       .  A
C657        O658   1.261       .  A
C657        C882   1.481       .  S
C659        O661   1.264       .  A
C659        O665   1.254       .  A
C659        C702   1.467       .  S
C663        C846   1.483       .  S
In666       O668   2.235       .  S
In666       O669   2.326       .  S
In666       O677   2.284   1_556  S
In666       O671   2.224   1_556  S
In666       O673   2.223       .  S
In666       O674   2.307       .  S
In666       O675   2.250       .  S
In666       O678   2.254       .  S
C667        O673   1.259       .  A
C667        O675   1.262       .  A
O668        C676   1.254       .  A
O669        C676   1.266       .  A
C670        O677   1.266       .  A
C670        O671   1.259       .  A
C670        C870   1.484       .  S
C672        O674   1.264       .  A
C672        O678   1.254       .  A
C672        C841   1.496       .  S
C676        C685   1.485       .  S
In679       O681   2.254       .  S
In679       O682   2.298       .  S
In679       O690   2.299   1_556  S
In679       O684   2.232   1_556  S
In679       O686   2.223       .  S
In679       O687   2.321       .  S
In679       O688   2.269       .  S
In679       O691   2.238       .  S
C680        O686   1.256       .  A
C680        O688   1.262       .  A
C680        C693   1.461   1_655  S
O681        C689   1.257       .  A
O682        C689   1.263       .  A
C683        O690   1.267       .  A
C683        O684   1.259       .  A
C683        C886   1.490       .  S
C685        O687   1.263       .  A
C685        O691   1.256       .  A
C689        C837   1.492       .  S
In692       O694   2.213       .  S
In692       O695   2.296       .  S
In692       O703   2.273   1_556  S
In692       O697   2.240   1_556  S
In692       O699   2.227       .  S
In692       O700   2.277       .  S
In692       O701   2.262       .  S
In692       O704   2.254       .  S
C693        O699   1.260       .  A
C693        O701   1.262       .  A
O694        C702   1.255       .  A
O695        C702   1.264       .  A
C696        O703   1.262       .  A
C696        O697   1.262       .  A
C696        C898   1.483       .  S
C698        O700   1.261       .  A
C698        O704   1.256       .  A
C698        C833   1.484       .  S
C705        C706   1.539       .  S
C705        C711   1.540       .  S
C705        C709   1.548       .  S
C705        C825   1.520       .  S
C706        H713   1.084       .  S
C706        C707   1.365       .  D
C707        C708   1.532       .  S
C707        C830   1.487   1_455  S
C708        C712   1.534       .  S
C708        C710   1.534       .  S
C708        H714   1.112       .  S
C709        H715   1.085       .  S
C709        C710   1.372       .  D
C710        C834   1.481       .  S
C711        H716   1.085       .  S
C711        C712   1.369       .  D
C712        C922   1.482       .  S
C717        C718   1.536       .  S
C717        C723   1.544       .  S
C717        C721   1.552       .  S
C717        C822   1.529       .  S
C718        H725   1.085       .  S
C718        C719   1.365       .  D
C719        C720   1.534       .  S
C719        C914   1.483       .  S
C720        C724   1.537       .  S
C720        C722   1.534       .  S
C720        H726   1.107       .  S
C721        H727   1.086       .  S
C721        C722   1.376       .  D
C722        C838   1.487       .  S
C723        H728   1.086       .  S
C723        C724   1.362       .  D
C724        C829   1.487       .  S
C729        C730   1.557       .  S
C729        C735   1.546       .  S
C729        C733   1.547       .  S
C729        C813   1.532       .  S
C730        H737   1.085       .  S
C730        C731   1.373       .  D
C731        C732   1.538       .  S
C731        C817   1.505       .  S
C732        C736   1.533       .  S
C732        C734   1.536       .  S
C732        H738   1.112       .  S
C733        H739   1.085       .  S
C733        C734   1.369       .  D
C734        C850   1.486       .  S
C735        H740   1.085       .  S
C735        C736   1.366       .  D
C736       C1026   1.484       .  S
C741        C742   1.536       .  S
C741        C747   1.553       .  S
C741        C745   1.535       .  S
C741        C821   1.524       .  S
C742        H749   1.085       .  S
C742        C743   1.364       .  D
C743        C744   1.536       .  S
C743       C1050   1.484       .  S
C744        C748   1.547       .  S
C744        C746   1.546       .  S
C744        H750   1.106       .  S
C745        H751   1.086       .  S
C745        C746   1.365       .  D
C746        C862   1.484       .  S
C747        H752   1.086       .  S
C747        C748   1.375       .  D
C748        C818   1.513       .  S
C753        C754   1.540       .  S
C753        C759   1.550       .  S
C753        C757   1.543       .  S
C753        C805   1.518       .  S
C754        H761   1.085       .  S
C754        C755   1.370       .  D
C755        C756   1.536       .  S
C755       C1034   1.483       .  S
C756        C760   1.535       .  S
C756        C758   1.535       .  S
C756        H762   1.112       .  S
C757        H763   1.086       .  S
C757        C758   1.367       .  D
C758        C854   1.477       .  S
C759        H764   1.084       .  S
C759        C760   1.368       .  D
C760        C809   1.502       .  S
C765        C766   1.544       .  S
C765        C771   1.544       .  S
C765        C769   1.537       .  S
C765        C826   1.523       .  S
C766        H773   1.086       .  S
C766        C767   1.369       .  D
C767        C768   1.543       .  S
C767        C810   1.503       .  S
C768        C772   1.539       .  S
C768        C770   1.544       .  S
C768        H774   1.107       .  S
C769        H775   1.086       .  S
C769        C770   1.363       .  D
C770        C858   1.484       .  S
C771        H776   1.085       .  S
C771        C772   1.368       .  D
C772       C1041   1.485       .  S
C777        C778   1.542       .  S
C777        C783   1.537       .  S
C777        C781   1.552       .  S
C777        C814   1.527       .  S
C778        H785   1.087       .  S
C778        C779   1.360       .  D
C779        C780   1.540       .  S
C779        C801   1.496   1_655  S
C780        C784   1.535       .  S
C780        C782   1.539       .  S
C780        H786   1.110       .  S
C781        H787   1.085       .  S
C781        C782   1.377       .  D
C782        C842   1.492   1_545  S
C783        H788   1.085       .  S
C783        C784   1.369       .  D
C784        C930   1.476       .  S
C789        C790   1.541       .  S
C789        C795   1.541       .  S
C789        C793   1.550       .  S
C789        C806   1.524       .  S
C790        H797   1.086       .  S
C790        C791   1.358       .  D
C791        C792   1.539       .  S
C791        C938   1.483       .  S
C792        C796   1.537       .  S
C792        C794   1.533       .  S
C792        H798   1.109       .  S
C793        H799   1.086   1_545  S
C793        C794   1.374       .  D
C794        C845   1.481   1_545  S
C795        H800   1.084       .  S
C795        C796   1.370       .  D
C796        C802   1.498       .  S
C801        H803   1.084       .  S
C801        C802   1.348       .  D
C802        H804   1.084       .  S
C805        H807   1.087       .  S
C805        C806   1.352       .  D
C806        H808   1.086       .  S
C809        H811   1.082       .  S
C809        C810   1.353       .  D
C810        H812   1.084       .  S
C813        H815   1.086       .  S
C813        C814   1.349       .  D
C814        H816   1.087       .  S
C817        H819   1.081       .  S
C817        C818   1.355       .  D
C818        H820   1.086       .  S
C821        H823   1.087       .  S
C821        C822   1.347       .  D
C822        H824   1.087       .  S
C825        H827   1.087       .  S
C825        C826   1.344       .  D
C826        H828   1.087       .  S
C829        H831   1.084       .  S
C829        C830   1.347       .  D
C830        H832   1.082       .  S
C833        H835   1.086       .  S
C833        C834   1.346       .  D
C834        H836   1.086       .  S
C837        H839   1.086       .  S
C837        C838   1.349       .  D
C838        H840   1.087       .  S
C841        H843   1.086       .  S
C841        C842   1.353       .  D
C842        H844   1.086       .  S
C845        H847   1.087       .  S
C845        C846   1.344       .  D
C846        H848   1.086       .  S
C849        H851   1.086       .  S
C849        C850   1.353       .  D
C850        H852   1.087       .  S
C853        H855   1.086       .  S
C853        C854   1.347       .  D
C854        H856   1.086       .  S
C857        H859   1.087       .  S
C857        C858   1.338       .  D
C858        H860   1.086       .  S
C861        H863   1.087       .  S
C861        C862   1.339       .  D
C862        H864   1.086       .  S
C865        H867   1.084       .  S
C865        C866   1.348       .  D
C866        H868   1.085       .  S
C869        H871   1.089       .  S
C869        C870   1.349       .  D
C870        H872   1.086       .  S
C873        H875   1.086       .  S
C873        C874   1.350       .  D
C874        H876   1.087       .  S
C877        H879   1.075   1_455  S
C877        C878   1.349   1_455  D
C878        H880   1.081       .  S
C881        H883   1.085       .  S
C881        C882   1.348       .  D
C882        H884   1.084       .  S
C885        H887   1.095       .  S
C885        C886   1.351       .  D
C886        H888   1.094       .  S
C889        H891   1.084       .  S
C889        C890   1.348       .  D
C890        H892   1.087       .  S
C893        H895   1.081       .  S
C893        C894   1.350       .  D
C894        H896   1.081       .  S
C897        H899   1.093       .  S
C897        C898   1.344       .  D
C898        H900   1.091       .  S
C901        H903   1.087       .  S
C901        C902   1.341       .  D
C902        H904   1.086       .  S
C905        H907   1.085       .  S
C905        C906   1.344       .  D
C906        H908   1.084       .  S
C909        H911   1.087       .  S
C909        C910   1.343       .  D
C910        H912   1.088       .  S
C913        H915   1.085       .  S
C913        C914   1.345       .  D
C914        H916   1.087       .  S
C917        H919   1.088       .  S
C917        C918   1.345       .  D
C918        H920   1.089       .  S
C921        H923   1.085       .  S
C921        C922   1.345       .  D
C922        H924   1.087       .  S
C925        H927   1.090       .  S
C925        C926   1.346       .  D
C926        H928   1.088       .  S
C929        H931   1.085       .  S
C929        C930   1.345       .  D
C930        H932   1.087       .  S
C933        H935   1.083       .  S
C933        C934   1.349       .  D
C934        H936   1.081       .  S
C937        H939   1.084       .  S
C937        C938   1.340       .  D
C938        H940   1.087       .  S
C941        H943   1.086       .  S
C941        C942   1.349       .  D
C942        H944   1.084       .  S
C945        H947   1.094       .  S
C945        C946   1.345       .  D
C946        H948   1.094       .  S
C949        H951   1.089       .  S
C949        C950   1.341       .  D
C950        H952   1.088       .  S
C953        H955   1.085       .  S
C953        C954   1.346       .  D
C954        H956   1.085       .  S
C957        H959   1.087       .  S
C957        C958   1.350       .  D
C958        H960   1.087       .  S
C961        H963   1.083       .  S
C961        C962   1.351       .  D
C962        H964   1.084       .  S
C965        H967   1.088       .  S
C965        C966   1.344       .  D
C966        H968   1.086       .  S
C969        H971   1.087       .  S
C969        C970   1.346       .  D
C970        H972   1.085       .  S
C973        H975   1.083       .  S
C973        C974   1.346       .  D
C974        H976   1.083       .  S
C977        H979   1.087       .  S
C977        C978   1.346       .  D
C978        H980   1.085       .  S
C981        H983   1.086       .  S
C981        C982   1.340       .  D
C982        H984   1.088       .  S
C985        H987   1.085       .  S
C985        C986   1.346       .  D
C986        H988   1.081   1_545  S
C989        H991   1.087       .  S
C989        C990   1.351       .  D
C990        H992   1.082       .  S
C993        H995   1.086       .  S
C993        C994   1.344       .  D
C994        H996   1.086       .  S
C997        H999   1.087       .  S
C997        C998   1.352       .  D
C998       H1000   1.086       .  S
C1001      H1003   1.084       .  S
C1001      C1002   1.348       .  D
C1002      H1004   1.083       .  S
C1005      H1007   1.085       .  S
C1005      C1006   1.348       .  D
C1006      H1008   1.083       .  S
C1009      H1011   1.086       .  S
C1009      C1010   1.345       .  D
C1010      H1012   1.087       .  S
C1013      H1015   1.088       .  S
C1013      C1014   1.339       .  D
C1014      H1016   1.085       .  S
C1017      H1019   1.087       .  S
C1017      C1018   1.341       .  D
C1018      H1020   1.087       .  S
C1021      H1023   1.087       .  S
C1021      C1022   1.346       .  D
C1022      H1024   1.087       .  S
C1025      H1027   1.085       .  S
C1025      C1026   1.348       .  D
C1026      H1028   1.087       .  S
C1029      H1031   1.086       .  S
C1029      C1030   1.347       .  D
C1030      H1032   1.086       .  S
C1033      H1035   1.085       .  S
C1033      C1034   1.345       .  D
C1034      H1036   1.087       .  S
C1037      H1039   1.087       .  S
C1037      C1038   1.346       .  D
C1038      H1040   1.086       .  S
C1041      H1043   1.087       .  S
C1041      C1042   1.348       .  D
C1042      H1044   1.086       .  S
C1045      H1047   1.086       .  S
C1045      C1046   1.347       .  D
C1046      H1048   1.087       .  S
C1049      H1051   1.085       .  S
C1049      C1050   1.348       .  D
C1050      H1052   1.087       .  S
C1053      H1055   1.085       .  S
C1053      C1054   1.349       .  D
C1054      H1056   1.087       .  S
C1057      H1059   1.090       .  S
C1057      C1058   1.345       .  D
C1058      H1060   1.088       .  S
C1061      H1063   1.085       .  S
C1061      C1062   1.350       .  D
C1062      H1064   1.082       .  S
C1065      H1067   1.085       .  S
C1065      C1066   1.346       .  D
C1066      H1068   1.085       .  S
C1069      H1071   1.085       .  S
C1069      C1070   1.349       .  D
C1070      H1072   1.087       .  S
C1073      H1075   1.089       .  S
C1073      C1074   1.348       .  D
C1074      H1076   1.087       .  S
C1077      H1079   1.089       .  S
C1077      C1078   1.349       .  D
C1078      H1080   1.084       .  S
C1081      H1083   1.086       .  S
C1081      C1082   1.345       .  D
C1082      H1084   1.084       .  S
C1085      H1087   1.092       .  S
C1085      C1086   1.345       .  D
C1086      H1088   1.089       .  S
C1089      H1091   1.092       .  S
C1089      C1090   1.345       .  D
C1090      H1092   1.090       .  S
C1093      H1095   1.087       .  S
C1093      C1094   1.344       .  D
C1094      H1096   1.085       .  S
C1097      H1099   1.088       .  S
C1097      C1098   1.343       .  D
C1098      H1100   1.084       .  S
C1101      H1103   1.088       .  S
C1101      C1102   1.354       .  D
C1102      H1104   1.087       .  S
C1105      H1107   1.085       .  S
C1105      C1106   1.347       .  D
C1106      H1108   1.087       .  S
C1109      H1111   1.088       .  S
C1109      C1110   1.344       .  D
C1110      H1112   1.090       .  S
C1113      H1115   1.085       .  S
C1113      C1114   1.351       .  D
C1114      H1116   1.081       .  S
C1117      H1119   1.087       .  S
C1117      C1118   1.349       .  D
C1118      H1120   1.085       .  S
C1121      H1123   1.086       .  S
C1121      C1122   1.350       .  D
C1122      H1124   1.085       .  S
C1125      H1127   1.089       .  S
C1125      C1126   1.347       .  D
C1126      H1128   1.088       .  S
C1129      H1131   1.080       .  S
C1129      C1130   1.345       .  D
C1130      H1132   1.085       .  S
C1133      H1135   1.089       .  S
C1133      C1134   1.346       .  D
C1134      H1136   1.087       .  S
C1137      H1139   1.091       .  S
C1137      C1138   1.345       .  D
C1138      H1140   1.092       .  S
C1141      H1143   1.081       .  S
C1141      C1142   1.349       .  D
C1142      H1144   1.084       .  S
C1145      H1147   1.085       .  S
C1145      C1146   1.340       .  D
C1146      H1148   1.089       .  S
C1149      H1151   1.086       .  S
C1149      C1150   1.345       .  D
C1150      H1152   1.086       .  S
C1153      H1155   1.085       .  S
C1153      C1154   1.346       .  D
C1154      H1156   1.087       .  S
C1157      H1159   1.086       .  S
C1157      C1158   1.348       .  D
C1158      H1160   1.085       .  S
C1161      H1163   1.086       .  S
C1161      C1162   1.352       .  D
C1162      H1164   1.084       .  S
C1165      H1167   1.087       .  S
C1165      C1166   1.351       .  D
C1166      H1168   1.087       .  S
C1169      H1171   1.084       .  S
C1169      C1170   1.346       .  D
C1170      H1172   1.086       .  S
C1173      H1175   1.086       .  S
C1173      C1174   1.343       .  D
C1174      H1176   1.086       .  S
C1177      H1179   1.085       .  S
C1177      C1178   1.349       .  D
C1178      H1180   1.087       .  S
C1181      H1183   1.090       .  S
C1181      C1182   1.347       .  D
C1182      H1184   1.090       .  S
