geometry optimzed in LAMMPS
_audit_creation_date              2020-11-30 
_audit_creation_method            'lammps2cif' 
_symmetry_space_group_name_H-M    'P1' 
_symmetry_Int_Tables_number       1 
_symmetry_cell_setting            triclinic 
loop_ 
_symmetry_equiv_pos_as_xyz 
  x,y,z 
_cell_length_a                    24.316454359211033 
_cell_length_b                    22.706704716730158 
_cell_length_c                    25.084857454241853 
_cell_angle_alpha                 88.82576780101859 
_cell_angle_beta                  90.16770135078595 
_cell_angle_gamma                 91.33923991023332 
loop_ 
_atom_site_label 
_atom_site_type_symbol 
_atom_site_fract_x 
_atom_site_fract_y 
_atom_site_fract_z 
_atom_site_charge 
O1          O  0.38443276  0.40549436  0.16917886    -0.56720
C2          C  0.24564857  0.35934334  0.03024627     0.75900
O3          O  0.40674293  0.41708372  0.51530021    -0.57880
C4          C  0.42237903  0.36810884  0.17426156     0.75880
C5          C  0.38630180  0.26535382  0.03252247     0.78270
Cd6        Cd  0.35350202  0.36387978  0.08054778     1.37460
O7          O  0.24969933  0.35175504  0.08078759    -0.56720
O8          O  0.35836365  0.26161494  0.07522743    -0.55530
C9          C  0.38595846  0.46480525  0.02899293     0.78230
O10         O  0.40573127  0.31504518  0.51676916    -0.57900
O11         O  0.28975076  0.36905862  0.50538015    -0.56350
O12         O  0.41822145  0.32434727  0.14396421    -0.56340
O13         O  0.35718825  0.46596390  0.07098111    -0.55520
O14         O  0.05769231  0.33546172  0.35534180    -0.56720
C15         C  0.19268541  0.35824590  0.50101905     0.75900
O16         O  0.03702894  0.41051953  0.01701747    -0.57880
C17         C  0.01977936  0.37327914  0.35411636     0.75880
C18         C  0.04988676  0.25702407  0.99279517     0.78270
Cd19       Cd  0.08536729  0.36084089  0.44988075     1.37470
O20         O  0.18890796  0.36818493  0.45076532    -0.56720
O21         O  0.07754464  0.25783081  0.45009276    -0.55530
C22         C  0.06124333  0.45865706  0.00386027     0.78230
O23         O  0.02938700  0.30413352  0.00884281    -0.57900
O24         O  0.14840929  0.34755639  0.02542757    -0.56350
O25         O  0.02032982  0.40884122  0.39230031    -0.56340
O26         O  0.09082696  0.46164096  0.46220554    -0.55520
O27         O  0.05851053  0.15564158  0.17027827    -0.56720
C28         C  0.19562610  0.11571688  0.03070992     0.75900
O29         O  0.03656895  0.05465132  0.52288458    -0.57880
C30         C  0.01928190  0.11786140  0.17516069     0.75880
C31         C  0.05319532  0.20730428  0.02756653     0.78270
Cd32       Cd  0.08886314  0.11175054  0.08248685     1.37470
O33         O  0.19264407  0.10821894  0.08136583    -0.56720
O34         O  0.08296721  0.21202681  0.06885052    -0.55530
C35         C  0.06094419  0.00819630  0.03754453     0.78230
O36         O  0.03343754  0.15750286  0.51525062    -0.57900
O37         O  0.15089808  0.12252030  0.00635661    -0.56350
O38         O  0.02282645  0.07325029  0.14601489    -0.56340
O39         O  0.09197997  0.00891906  0.07841614    -0.55520
O40         O  0.38220779  0.08471880  0.35583589    -0.56720
C41         C  0.24796098  0.11635843  0.50075116     0.75900
O42         O  0.40910929  0.06320494  0.00939450    -0.57880
C43         C  0.41956559  0.12481396  0.35190752     0.75880
C44         C  0.38629479  0.21623623  0.99840863     0.78270
Cd45       Cd  0.35442765  0.11726705  0.44815633     1.37460
O46         O  0.25084643  0.12360638  0.45010139    -0.56720
O47         O  0.35827384  0.21906432  0.45559873    -0.55530
C48         C  0.38704777  0.01523415  0.99469063     0.78230
O49         O  0.40640853  0.16769191  0.01357478    -0.57900
O50         O  0.29267839  0.10900075  0.02492710    -0.56350
O51         O  0.41750888  0.16463888  0.38632598    -0.56340
O52         O  0.35797847  0.01456415  0.45272718    -0.55520
C53         C  0.96729974  0.12471255  0.21001957    -0.01400
C54         C  0.97322480  0.37474964  0.31234433    -0.01400
O55         O  0.74787151  0.39153203  0.44106655    -0.56720
C56         C  0.92130182  0.38168397  0.34726813     0.75900
O57         O  0.90392328  0.44573834  0.99929023    -0.57880
C58         C  0.74490276  0.38398183  0.49171931     0.75880
C59         C  0.88743264  0.29282892  0.99500720     0.78270
Cd60       Cd  0.85166073  0.38811593  0.43991537     1.37470
O61         O  0.88202204  0.34397434  0.35220167    -0.56720
O62         O  0.85768346  0.28792449  0.45367433    -0.55530
C63         C  0.87935365  0.49191937  0.98469493     0.78230
O64         O  0.90709830  0.34278034  0.00733818    -0.57900
O65         O  0.91782993  0.42633565  0.37637722    -0.56350
O66         O  0.78970078  0.37726170  0.01607019    -0.56340
O67         O  0.84823176  0.49095794  0.44391425    -0.55520
O68         O  0.55842879  0.41539647  0.16667088    -0.56720
C69         C  0.69265751  0.38356131  0.02170665     0.75900
O70         O  0.53407899  0.33221655  0.50896075    -0.57880
C71         C  0.52109993  0.37527234  0.17062082     0.75880
C72         C  0.55366355  0.48479570  0.02781326     0.78270
Cd73       Cd  0.58620496  0.38283309  0.07434999     1.37470
O74         O  0.68978892  0.37636163  0.07236187    -0.56720
O75         O  0.58275420  0.48555872  0.06979402    -0.55530
C76         C  0.55413381  0.28378264  0.02414589     0.78230
O77         O  0.53151650  0.43673921  0.51307584    -0.57900
O78         O  0.64784976  0.39070462  0.49753500    -0.56350
O79         O  0.52318752  0.33542787  0.13622460    -0.56340
O80         O  0.58207523  0.28104032  0.06694308    -0.55520
O81         O  0.69091426  0.14841847  0.44170068    -0.56720
C82         C  0.51828423  0.13194400  0.34824872     0.75900
O83         O  0.53385253  0.08305984  0.00725003    -0.57880
C84         C  0.69498545  0.14082279  0.49223829     0.75880
C85         C  0.55412644  0.23467533  0.99002192     0.78270
Cd86       Cd  0.58712523  0.13611984  0.44197421     1.37460
O87         O  0.55620370  0.09452882  0.35334138    -0.56720
O88         O  0.58200007  0.23835511  0.44730677    -0.55530
C89         C  0.55474628  0.03524119  0.99352588     0.78230
O90         O  0.53474854  0.18510902  0.00578279    -0.57900
O91         O  0.52246893  0.17571190  0.37853509    -0.56350
O92         O  0.65079328  0.13132388  0.01712546    -0.56340
O93         O  0.58353566  0.03401256  0.45151361    -0.55520
O94         O  0.75164528  0.13212617  0.07168174    -0.56720
C95         C  0.92081405  0.12639889  0.16819274     0.75900
O96         O  0.90338418  0.08944507  0.50529765    -0.57880
C97         C  0.74784840  0.14219712  0.02144858     0.75880
C98         C  0.89075382  0.24313609  0.02979522     0.78270
Cd99       Cd  0.85516168  0.13938152  0.07253013     1.37460
O100        O  0.88268761  0.16398250  0.16729787    -0.56680
O101        O  0.86300459  0.24241152  0.07248836    -0.55530
C102        C  0.87900155  0.04148252  0.01835066     0.78230
O103        O  0.91128743  0.19596216  0.51372718    -0.57900
O104        O  0.92052995  0.09132560  0.12964123    -0.56350
O105        O  0.79218179  0.15284239  0.99703672    -0.56340
O106        O  0.84926060  0.03866022  0.05990486    -0.55520
C107        C  0.47334099  0.37498523  0.21104504    -0.01400
C108        C  0.46731542  0.12508970  0.31147444    -0.01400
C109        C  0.47879822  0.44930400  0.29387501    -0.00760
C110        C  0.47258535  0.43949345  0.23837702     0.08920
C111        C  0.46646764  0.49310272  0.20648254    -0.00870
C112        C  0.46184176  0.05077142  0.22864397    -0.00870
C113        C  0.46805324  0.06058102  0.28414183     0.09060
C114        C  0.47416521  0.00697110  0.31603640    -0.01070
Br115      Br  0.47268909  0.00796716  0.39296355     0.00380
Br116      Br  0.50001388  0.38573317  0.34177456     0.00310
Br117      Br  0.44064758  0.11435103  0.18074545     0.00350
Br118      Br  0.46793756  0.49210475  0.12955552     0.00370
C119        C  0.52105954  0.27563401  0.24641110    -0.00760
C120        C  0.47453971  0.31363442  0.24531848     0.08920
C121        C  0.42482264  0.28651526  0.26498686    -0.00870
C122        C  0.41960092  0.22444914  0.27612003    -0.00870
C123        C  0.46611987  0.18644569  0.27720699     0.09060
C124        C  0.51583864  0.21356752  0.25754319    -0.01070
Br125      Br  0.57725498  0.16464418  0.24079848     0.00380
Br126      Br  0.59527713  0.30839664  0.24481027     0.00310
Br127      Br  0.34538025  0.19169588  0.27773705     0.00350
Br128      Br  0.36341194  0.33544464  0.28173687     0.00370
C129        C  0.92092005  0.01847580  0.23794419    -0.00760
C130        C  0.96416738  0.06264604  0.24367122     0.08920
C131        C  0.01184968  0.04195523  0.27087316    -0.00870
C132        C  0.01955700  0.48077568  0.28404830    -0.00870
C133        C  0.97626659  0.43668461  0.27852796     0.09060
C134        C  0.92857949  0.45731770  0.25132606    -0.01070
Br135      Br  0.87289104  0.40018996  0.22972391     0.00380
Br136      Br  0.84573684  0.03966080  0.22242893     0.00310
Br137      Br  0.09484430  0.45927257  0.29859408     0.00350
Br138      Br  0.06758202  0.09892453  0.29265617     0.00370
C139        C  0.95666726  0.19872836  0.29227011    -0.00760
C140        C  0.96878789  0.18916398  0.23784245     0.08920
C141        C  0.97903142  0.24322330  0.20714281    -0.00870
C142        C  0.98393352  0.30067828  0.23018838    -0.00870
C143        C  0.97176146  0.31025929  0.28459922     0.09060
C144        C  0.96151440  0.25620647  0.31531276    -0.01070
Br145      Br  0.96051242  0.25571918  0.39200806     0.00380
Br146      Br  0.92496205  0.13543494  0.33591708     0.00310
Br147      Br  0.01583745  0.36387958  0.18655783     0.00350
Br148      Br  0.97995851  0.24377878  0.13044901     0.00370
O149        O  0.38439392  0.40557059  0.66919326    -0.56720
C150        C  0.24557630  0.35948823  0.53025377     0.75900
O151        O  0.40678713  0.41695574  0.01525983    -0.57880
C152        C  0.42230581  0.36814512  0.67427560     0.75880
C153        C  0.38624294  0.26550913  0.53248221     0.78270
Cd154      Cd  0.35343024  0.36400435  0.58055711     1.37460
O155        O  0.24962533  0.35189379  0.58079438    -0.56720
O156        O  0.35830218  0.26174837  0.57518431    -0.55530
C157        C  0.38592520  0.46493767  0.52903523     0.78230
O158        O  0.40580338  0.31487918  0.01679551    -0.57900
O159        O  0.28982232  0.36890976  0.00536978    -0.56350
O160        O  0.41810315  0.32438268  0.64398338    -0.56340
O161        O  0.35714725  0.46609888  0.57101885    -0.55520
O162        O  0.05774890  0.33543904  0.85532876    -0.56720
C163        C  0.19275576  0.35810460  0.00101450     0.75900
O164        O  0.03696215  0.41065414  0.51699200    -0.57880
C165        C  0.01984454  0.37326729  0.85412954     0.75880
C166        C  0.04985810  0.25713494  0.49282124     0.78270
Cd167      Cd  0.08543325  0.36073263  0.94988517     1.37470
O168        O  0.18897514  0.36805506  0.95076285    -0.56720
O169        O  0.07757899  0.25771788  0.95006983    -0.55530
C170        C  0.06116758  0.45878997  0.50381280     0.78230
O171        O  0.02934594  0.30424013  0.50886531    -0.57900
O172        O  0.14833787  0.34770049  0.52543100    -0.56350
O173        O  0.02040433  0.40879699  0.89233809    -0.56340
O174        O  0.09092225  0.46151840  0.96226650    -0.55520
O175        O  0.05852530  0.15572957  0.67027359    -0.56720
C176        C  0.19564696  0.11582483  0.53070256     0.75900
O177        O  0.03657559  0.05449516  0.02292440    -0.57880
C178        C  0.01933064  0.11791287  0.67517979     0.75880
C179        C  0.05318039  0.20741544  0.52759151     0.78270
Cd180      Cd  0.08888060  0.11185288  0.58248034     1.37470
O181        O  0.19266363  0.10831678  0.58135686    -0.56720
O182        O  0.08296137  0.21213758  0.56886968    -0.55530
C183        C  0.06090183  0.00832887  0.53749969     0.78230
O184        O  0.03344605  0.15739336  0.01522747    -0.57900
O185        O  0.15091927  0.12263325  0.50635091    -0.56350
O186        O  0.02290791  0.07329191  0.64605075    -0.56340
O187        O  0.09193459  0.00902028  0.57837351    -0.55520
O188        O  0.38219752  0.08464095  0.85583365    -0.56720
C189        C  0.24793927  0.11624441  0.00075790     0.75900
O190        O  0.40909743  0.06333498  0.50943331    -0.57880
C191        C  0.41951707  0.12477628  0.85190024     0.75880
C192        C  0.38626893  0.21639319  0.49836717     0.78270
Cd193      Cd  0.35440540  0.11714662  0.94815977     1.37460
O194        O  0.25082402  0.12348923  0.95010829    -0.56720
O195        O  0.35830689  0.21893453  0.95563769    -0.55530
C196        C  0.38703091  0.01536532  0.49473145     0.78230
O197        O  0.40641743  0.16786732  0.51353709    -0.57900
O198        O  0.29270012  0.10911731  0.52492175    -0.56350
O199        O  0.41742091  0.16460313  0.88631345    -0.56340
O200        O  0.35798011  0.01443638  0.95269583    -0.55520
C201        C  0.96734228  0.12474010  0.71003492    -0.01400
C202        C  0.97328400  0.37477482  0.81236467    -0.01400
O203        O  0.74792720  0.39161158  0.94107934    -0.56720
C204        C  0.92136772  0.38172965  0.84729235     0.75900
O205        O  0.90388210  0.44560431  0.49932043    -0.57880
C206        C  0.74496234  0.38407797  0.99173435     0.75880
C207        C  0.88740584  0.29273850  0.49498029     0.78270
Cd208      Cd  0.85171301  0.38820208  0.93992316     1.37470
O209        O  0.88206191  0.34404856  0.85221033    -0.56720
O210        O  0.85771725  0.28801815  0.95369658    -0.55530
C211        C  0.87934399  0.49180668  0.48473100     0.78230
O212        O  0.90706489  0.34269267  0.50730994    -0.57900
O213        O  0.91792392  0.42637466  0.87641341    -0.56350
O214        O  0.78963927  0.37715366  0.51605455    -0.56340
O215        O  0.84823598  0.49104106  0.94388238    -0.55520
O216        O  0.55839272  0.41532734  0.66665377    -0.56720
C217        C  0.69259672  0.38346021  0.52169050     0.75900
O218        O  0.53412723  0.33236766  0.00894417    -0.57880
C219        C  0.52102784  0.37524124  0.67060146     0.75880
C220        C  0.55363652  0.48468378  0.52777187     0.78270
Cd221      Cd  0.58614566  0.38272890  0.57433574     1.37470
O222        O  0.68972775  0.37625369  0.57234540    -0.56720
O223        O  0.58271291  0.48544581  0.56976153    -0.55530
C224        C  0.55410958  0.28364683  0.52417269     0.78230
O225        O  0.53154736  0.43684834  0.01312076    -0.57900
O226        O  0.64791052  0.39080274  0.99755120    -0.56350
O227        O  0.52307169  0.33540136  0.63619723    -0.56340
O228        O  0.58205219  0.28092927  0.56697080    -0.55520
O229        O  0.69087604  0.14853379  0.94169688    -0.56720
C230        C  0.51823404  0.13197874  0.84825884     0.75900
O231        O  0.53386149  0.08295481  0.50721818    -0.57880
C232        C  0.69494928  0.14094370  0.99223525     0.75880
C233        C  0.55413432  0.23453880  0.49005140     0.78270
Cd234      Cd  0.58708787  0.13622705  0.94197677     1.37460
O235        O  0.55619003  0.09460465  0.85334264    -0.56720
O236        O  0.58199287  0.23847166  0.94727644    -0.55530
C237        C  0.55473751  0.03513013  0.49348690     0.78230
O238        O  0.53477884  0.18496112  0.50580685    -0.57900
O239        O  0.52237647  0.17574064  0.87855603    -0.56350
O240        O  0.65082865  0.13119749  0.51712515    -0.56340
O241        O  0.58353937  0.03412700  0.95154959    -0.55520
O242        O  0.75167866  0.13201676  0.57168857    -0.56720
C243        C  0.92086198  0.12639484  0.66820141     0.75900
O244        O  0.90336623  0.08956126  0.00527797    -0.57880
C245        C  0.74788300  0.14208081  0.52145397     0.75880
C246        C  0.89074173  0.24304796  0.52976976     0.78270
Cd247      Cd  0.85519441  0.13929373  0.57253802     1.37460
O248        O  0.88271349  0.16395264  0.66729795    -0.56680
O249        O  0.86299836  0.24232159  0.57246629    -0.55530
C250        C  0.87902420  0.04136973  0.51838993     0.78230
O251        O  0.91128455  0.19604541  0.01374703    -0.57900
O252        O  0.92059969  0.09131193  0.62965702    -0.56350
O253        O  0.79221626  0.15272760  0.49704235    -0.56340
O254        O  0.84930439  0.03855817  0.55995890    -0.55520
C255        C  0.47328560  0.37498533  0.71104243    -0.01400
C256        C  0.46727557  0.12508880  0.81147604    -0.01400
C257        C  0.47879181  0.44930355  0.79387291    -0.00760
C258        C  0.47256916  0.43949483  0.73837552     0.08920
C259        C  0.46646176  0.49310629  0.70648264    -0.00870
C260        C  0.46182524  0.05077181  0.72864582    -0.00870
C261        C  0.46804666  0.06058221  0.78414234     0.09060
C262        C  0.47417806  0.00697345  0.81603529    -0.01070
Br263      Br  0.47274963  0.00797475  0.89296355     0.00380
Br264      Br  0.49998610  0.38572105  0.84176900     0.00310
Br265      Br  0.44059169  0.11434038  0.68075279     0.00350
Br266      Br  0.46795751  0.49211642  0.62955643     0.00370
C267        C  0.52099919  0.27563028  0.74640196    -0.00760
C268        C  0.47447986  0.31363179  0.74531344     0.08920
C269        C  0.42476436  0.28651282  0.76498644    -0.00870
C270        C  0.41954539  0.22444699  0.77612868    -0.00870
C271        C  0.46606520  0.18644389  0.77720834     0.09060
C272        C  0.51577906  0.21356432  0.75753267    -0.01070
Br273      Br  0.57719317  0.16464063  0.74078115     0.00380
Br274      Br  0.59521766  0.30839054  0.74479722     0.00310
Br275      Br  0.34532486  0.19169415  0.77776833     0.00350
Br276      Br  0.36335705  0.33544432  0.78174257     0.00370
C277        C  0.92098115  0.01850032  0.73796781    -0.00760
C278        C  0.96422298  0.06267558  0.74369109     0.08920
C279        C  0.01190510  0.04199512  0.77089930    -0.00870
C280        C  0.01961519  0.48081792  0.78409193    -0.00870
C281        C  0.97633370  0.43671584  0.77855512     0.09060
C282        C  0.92864936  0.45734331  0.75134360    -0.01070
Br283      Br  0.87296617  0.40021402  0.72973244     0.00380
Br284      Br  0.84579107  0.03968079  0.72247889     0.00310
Br285      Br  0.09489623  0.45934427  0.79871058     0.00350
Br286      Br  0.06762560  0.09898241  0.79267487     0.00370
C287        C  0.95668855  0.19875659  0.79228339    -0.00760
C288        C  0.96880617  0.18919394  0.73785465     0.08920
C289        C  0.97904020  0.24325503  0.70715542    -0.00870
C290        C  0.98396184  0.30070603  0.73020442    -0.00870
C291        C  0.97179298  0.31028723  0.78461514     0.09060
C292        C  0.96153345  0.25623508  0.81532671    -0.01070
Br293      Br  0.96051231  0.25574970  0.89202178     0.00380
Br294      Br  0.92499010  0.13545902  0.83593012     0.00310
Br295      Br  0.01589382  0.36389681  0.68658107     0.00350
Br296      Br  0.97992024  0.24382281  0.63046171     0.00370
O297        O  0.38443277  0.90549436  0.16917886    -0.56720
C298        C  0.24564857  0.85934334  0.03024628     0.75900
O299        O  0.40674293  0.91708371  0.51530022    -0.57880
C300        C  0.42237903  0.86810885  0.17426157     0.75880
C301        C  0.38630180  0.76535382  0.03252248     0.78270
Cd302      Cd  0.35350203  0.86387979  0.08054778     1.37460
O303        O  0.24969934  0.85175505  0.08078760    -0.56720
O304        O  0.35836365  0.76161494  0.07522743    -0.55530
C305        C  0.38595845  0.96480525  0.02899293     0.78230
O306        O  0.40573126  0.81504517  0.51676917    -0.57900
O307        O  0.28975075  0.86905861  0.50538016    -0.56350
O308        O  0.41822145  0.82434727  0.14396422    -0.56340
O309        O  0.35718826  0.96596391  0.07098111    -0.55520
O310        O  0.05769232  0.83546175  0.35534181    -0.56720
C311        C  0.19268540  0.85824588  0.50101908     0.75900
O312        O  0.03702895  0.91051955  0.01701747    -0.57880
C313        C  0.01977935  0.87327914  0.35411638     0.75880
C314        C  0.04988679  0.75702406  0.99279520     0.78270
Cd315      Cd  0.08536729  0.86084089  0.44988077     1.37470
O316        O  0.18890795  0.86818491  0.45076534    -0.56720
O317        O  0.07754463  0.75783080  0.45009278    -0.55530
C318        C  0.06124336  0.95865707  0.00386028     0.78230
O319        O  0.02938702  0.80413351  0.00884284    -0.57900
O320        O  0.14840930  0.84755639  0.02542759    -0.56350
O321        O  0.02032978  0.90884119  0.39230036    -0.56340
O322        O  0.09082700  0.96164096  0.46220556    -0.55520
O323        O  0.05851054  0.65564157  0.17027828    -0.56720
C324        C  0.19562610  0.61571685  0.03070994     0.75900
O325        O  0.03656894  0.55465132  0.52288457    -0.57880
C326        C  0.01928190  0.61786140  0.17516070     0.75880
C327        C  0.05319534  0.70730426  0.02756655     0.78270
Cd328      Cd  0.08886314  0.61175051  0.08248686     1.37470
O329        O  0.19264408  0.60821890  0.08136584    -0.56720
O330        O  0.08296723  0.71202679  0.06885054    -0.55530
C331        C  0.06094417  0.50819629  0.03754453     0.78230
O332        O  0.03343753  0.65750285  0.51525062    -0.57900
O333        O  0.15089809  0.62252027  0.00635663    -0.56350
O334        O  0.02282644  0.57325029  0.14601490    -0.56340
O335        O  0.09197993  0.50891902  0.07841614    -0.55520
O336        O  0.38220779  0.58471880  0.35583590    -0.56720
C337        C  0.24796096  0.61635841  0.50075116     0.75900
O338        O  0.40910929  0.56320493  0.00939451    -0.57880
C339        C  0.41956559  0.62481395  0.35190752     0.75880
C340        C  0.38629479  0.71623623  0.99840864     0.78270
Cd341      Cd  0.35442763  0.61726705  0.44815633     1.37460
O342        O  0.25084642  0.62360637  0.45010139    -0.56720
O343        O  0.35827383  0.71906432  0.45559874    -0.55530
C344        C  0.38704778  0.51523415  0.99469064     0.78230
O345        O  0.40640853  0.66769191  0.01357479    -0.57900
O346        O  0.29267840  0.60900072  0.02492711    -0.56350
O347        O  0.41750887  0.66463888  0.38632598    -0.56340
O348        O  0.35797847  0.51456415  0.45272717    -0.55520
C349        C  0.96729975  0.62471255  0.21001959    -0.01400
C350        C  0.97322480  0.87474965  0.31234435    -0.01400
O351        O  0.74787150  0.89153199  0.44106656    -0.56720
C352        C  0.92130181  0.88168397  0.34726814     0.75900
O353        O  0.90392328  0.94573834  0.99929022    -0.57880
C354        C  0.74490275  0.88398180  0.49171932     0.75880
C355        C  0.88743265  0.79282891  0.99500723     0.78270
Cd356      Cd  0.85166072  0.88811590  0.43991537     1.37470
O357        O  0.88202204  0.84397432  0.35220168    -0.56720
O358        O  0.85768346  0.78792446  0.45367435    -0.55530
C359        C  0.87935361  0.99191936  0.98469493     0.78230
O360        O  0.90709831  0.84278033  0.00733819    -0.57900
O361        O  0.91782991  0.92633564  0.37637722    -0.56350
O362        O  0.78970078  0.87726167  0.01607020    -0.56340
O363        O  0.84823171  0.99095790  0.44391426    -0.55520
O364        O  0.55842879  0.91539647  0.16667089    -0.56720
C365        C  0.69265751  0.88356128  0.02170666     0.75900
O366        O  0.53407898  0.83221655  0.50896075    -0.57880
C367        C  0.52109994  0.87527233  0.17062083     0.75880
C368        C  0.55366355  0.98479569  0.02781326     0.78270
Cd369      Cd  0.58620496  0.88283308  0.07435000     1.37470
O370        O  0.68978892  0.87636161  0.07236189    -0.56720
O371        O  0.58275421  0.98555871  0.06979402    -0.55530
C372        C  0.55413381  0.78378263  0.02414590     0.78230
O373        O  0.53151650  0.93673922  0.51307583    -0.57900
O374        O  0.64784975  0.89070459  0.49753500    -0.56350
O375        O  0.52318753  0.83542787  0.13622461    -0.56340
O376        O  0.58207522  0.78104032  0.06694309    -0.55520
O377        O  0.69091425  0.64841846  0.44170070    -0.56720
C378        C  0.51828422  0.63194400  0.34824873     0.75900
O379        O  0.53385254  0.58305985  0.00725003    -0.57880
C380        C  0.69498544  0.64082277  0.49223831     0.75880
C381        C  0.55412645  0.73467532  0.99002192     0.78270
Cd382      Cd  0.58712523  0.63611983  0.44197422     1.37460
O383        O  0.55620369  0.59452882  0.35334139    -0.56720
O384        O  0.58200007  0.73835510  0.44730678    -0.55530
C385        C  0.55474628  0.53524120  0.99352587     0.78230
O386        O  0.53474855  0.68510901  0.00578279    -0.57900
O387        O  0.52246892  0.67571190  0.37853510    -0.56350
O388        O  0.65079329  0.63132386  0.01712547    -0.56340
O389        O  0.58353565  0.53401256  0.45151361    -0.55520
O390        O  0.75164529  0.63212616  0.07168175    -0.56720
C391        C  0.92081406  0.62639889  0.16819276     0.75900
O392        O  0.90338419  0.58944510  0.50529767    -0.57880
C393        C  0.74784841  0.64219711  0.02144860     0.75880
C394        C  0.89075384  0.74313608  0.02979524     0.78270
Cd395      Cd  0.85516169  0.63938151  0.07253015     1.37460
O396        O  0.88268764  0.66398253  0.16729788    -0.56680
O397        O  0.86300461  0.74241151  0.07248839    -0.55530
C398        C  0.87900159  0.54148253  0.01835067     0.78230
O399        O  0.91128744  0.69596214  0.51372722    -0.57900
O400        O  0.92052992  0.59132556  0.12964129    -0.56350
O401        O  0.79218180  0.65284238  0.99703674    -0.56340
O402        O  0.84926067  0.53866020  0.05990488    -0.55520
C403        C  0.47334099  0.87498523  0.21104504    -0.01400
C404        C  0.46731542  0.62508969  0.31147444    -0.01400
C405        C  0.47879821  0.94930400  0.29387501    -0.00760
C406        C  0.47258535  0.93949345  0.23837703     0.08920
C407        C  0.46646764  0.99310272  0.20648254    -0.00870
C408        C  0.46184176  0.55077142  0.22864397    -0.00870
C409        C  0.46805324  0.56058102  0.28414183     0.09060
C410        C  0.47416521  0.50697110  0.31603639    -0.01070
Br411      Br  0.47268909  0.50796715  0.39296355     0.00380
Br412      Br  0.50001385  0.88573317  0.34177457     0.00310
Br413      Br  0.44064759  0.61435103  0.18074545     0.00350
Br414      Br  0.46793757  0.99210475  0.12955553     0.00370
C415        C  0.52105954  0.77563401  0.24641111    -0.00760
C416        C  0.47453971  0.81363442  0.24531849     0.08920
C417        C  0.42482264  0.78651525  0.26498685    -0.00870
C418        C  0.41960092  0.72444913  0.27612003    -0.00870
C419        C  0.46611987  0.68644569  0.27720700     0.09060
C420        C  0.51583864  0.71356753  0.25754321    -0.01070
Br421      Br  0.57725499  0.66464419  0.24079851     0.00380
Br422      Br  0.59527712  0.80839665  0.24481031     0.00310
Br423      Br  0.34538025  0.69169587  0.27773703     0.00350
Br424      Br  0.36341192  0.83544463  0.28173686     0.00370
C425        C  0.92092005  0.51847582  0.23794424    -0.00760
C426        C  0.96416740  0.56264605  0.24367124     0.08920
C427        C  0.01184971  0.54195521  0.27087314    -0.00870
C428        C  0.01955698  0.98077571  0.28404834    -0.00870
C429        C  0.97626659  0.93668462  0.27852798     0.09060
C430        C  0.92857951  0.95731768  0.25132605    -0.01070
Br431      Br  0.87289108  0.90018991  0.22972388     0.00380
Br432      Br  0.84573683  0.53966088  0.22242907     0.00310
Br433      Br  0.09484429  0.95927264  0.29859420     0.00350
Br434      Br  0.06758207  0.59892449  0.29265615     0.00370
C435        C  0.95666728  0.69872836  0.29227013    -0.00760
C436        C  0.96878791  0.68916398  0.23784247     0.08920
C437        C  0.97903145  0.74322330  0.20714283    -0.00870
C438        C  0.98393355  0.80067828  0.23018840    -0.00870
C439        C  0.97176148  0.81025929  0.28459924     0.09060
C440        C  0.96151442  0.75620647  0.31531278    -0.01070
Br441      Br  0.96051243  0.75571918  0.39200809     0.00380
Br442      Br  0.92496210  0.63543494  0.33591711     0.00310
Br443      Br  0.01583750  0.86387957  0.18655787     0.00350
Br444      Br  0.97995854  0.74377878  0.13044903     0.00370
O445        O  0.38439392  0.90557059  0.66919326    -0.56720
C446        C  0.24557629  0.85948822  0.53025379     0.75900
O447        O  0.40678713  0.91695574  0.01525983    -0.57880
C448        C  0.42230580  0.86814512  0.67427561     0.75880
C449        C  0.38624293  0.76550913  0.53248221     0.78270
Cd450      Cd  0.35343024  0.86400435  0.58055712     1.37460
O451        O  0.24962533  0.85189378  0.58079440    -0.56720
O452        O  0.35830218  0.76174837  0.57518432    -0.55530
C453        C  0.38592519  0.96493766  0.52903524     0.78230
O454        O  0.40580339  0.81487918  0.01679551    -0.57900
O455        O  0.28982232  0.86890976  0.00536979    -0.56350
O456        O  0.41810314  0.82438267  0.64398339    -0.56340
O457        O  0.35714723  0.96609887  0.57101885    -0.55520
O458        O  0.05774892  0.83543907  0.85532877    -0.56720
C459        C  0.19275576  0.85810460  0.00101452     0.75900
O460        O  0.03696216  0.91065416  0.51699200    -0.57880
C461        C  0.01984454  0.87326729  0.85412958     0.75880
C462        C  0.04985810  0.75713494  0.49282126     0.78270
Cd463      Cd  0.08543326  0.86073263  0.94988520     1.37470
O464        O  0.18897514  0.86805506  0.95076287    -0.56720
O465        O  0.07757900  0.75771788  0.95006985    -0.55530
C466        C  0.06116760  0.95878998  0.50381281     0.78230
O467        O  0.02934594  0.80424012  0.50886534    -0.57900
O468        O  0.14833786  0.84770048  0.52543102    -0.56350
O469        O  0.02040429  0.90879696  0.89233814    -0.56340
O470        O  0.09092230  0.96151839  0.96226652    -0.55520
O471        O  0.05852530  0.65572955  0.67027360    -0.56720
C472        C  0.19564694  0.61582480  0.53070256     0.75900
O473        O  0.03657560  0.55449516  0.02292440    -0.57880
C474        C  0.01933063  0.61791287  0.67517980     0.75880
C475        C  0.05318038  0.70741543  0.52759152     0.78270
Cd476      Cd  0.08888058  0.61185286  0.58248034     1.37470
O477        O  0.19266361  0.60831674  0.58135686    -0.56720
O478        O  0.08296137  0.71213756  0.56886970    -0.55530
C479        C  0.06090179  0.50832886  0.53749969     0.78230
O480        O  0.03344606  0.65739335  0.01522748    -0.57900
O481        O  0.15091925  0.62263323  0.50635091    -0.56350
O482        O  0.02290787  0.57329191  0.64605075    -0.56340
O483        O  0.09193454  0.50902025  0.57837352    -0.55520
O484        O  0.38219753  0.58464095  0.85583366    -0.56720
C485        C  0.24793928  0.61624438  0.00075791     0.75900
O486        O  0.40909743  0.56333499  0.50943331    -0.57880
C487        C  0.41951708  0.62477628  0.85190025     0.75880
C488        C  0.38626892  0.71639319  0.49836718     0.78270
Cd489      Cd  0.35440541  0.61714661  0.94815978     1.37460
O490        O  0.25082403  0.62348922  0.95010831    -0.56720
O491        O  0.35830689  0.71893453  0.95563770    -0.55530
C492        C  0.38703091  0.51536533  0.49473144     0.78230
O493        O  0.40641742  0.66786731  0.51353709    -0.57900
O494        O  0.29270011  0.60911728  0.52492175    -0.56350
O495        O  0.41742092  0.66460312  0.88631347    -0.56340
O496        O  0.35798013  0.51443638  0.95269584    -0.55520
C497        C  0.96734228  0.62474010  0.71003494    -0.01400
C498        C  0.97328401  0.87477482  0.81236469    -0.01400
O499        O  0.74792720  0.89161153  0.94107935    -0.56720
C500        C  0.92136772  0.88172965  0.84729236     0.75900
O501        O  0.90388209  0.94560430  0.49932042    -0.57880
C502        C  0.74496234  0.88407793  0.99173436     0.75880
C503        C  0.88740584  0.79273848  0.49498030     0.78270
Cd504      Cd  0.85171301  0.88820205  0.93992317     1.37470
O505        O  0.88206192  0.84404854  0.85221034    -0.56720
O506        O  0.85771726  0.78801813  0.95369661    -0.55530
C507        C  0.87934396  0.99180666  0.48473100     0.78230
O508        O  0.90706488  0.84269265  0.50730995    -0.57900
O509        O  0.91792390  0.92637466  0.87641342    -0.56350
O510        O  0.78963927  0.87715364  0.51605456    -0.56340
O511        O  0.84823592  0.99104103  0.94388239    -0.55520
O512        O  0.55839272  0.91532734  0.66665377    -0.56720
C513        C  0.69259671  0.88346018  0.52169050     0.75900
O514        O  0.53412723  0.83236766  0.00894418    -0.57880
C515        C  0.52102783  0.87524124  0.67060146     0.75880
C516        C  0.55363653  0.98468379  0.52777186     0.78270
Cd517      Cd  0.58614565  0.88272890  0.57433574     1.37470
O518        O  0.68972774  0.87625368  0.57234540    -0.56720
O519        O  0.58271292  0.98544581  0.56976153    -0.55530
C520        C  0.55410957  0.78364683  0.52417270     0.78230
O521        O  0.53154736  0.93684833  0.01312077    -0.57900
O522        O  0.64791052  0.89080271  0.99755121    -0.56350
O523        O  0.52307169  0.83540136  0.63619722    -0.56340
O524        O  0.58205217  0.78092927  0.56697080    -0.55520
O525        O  0.69087605  0.64853379  0.94169690    -0.56720
C526        C  0.51823405  0.63197873  0.84825884     0.75900
O527        O  0.53386148  0.58295481  0.50721819    -0.57880
C528        C  0.69494929  0.64094369  0.99223526     0.75880
C529        C  0.55413431  0.73453880  0.49005140     0.78270
Cd530      Cd  0.58708788  0.63622705  0.94197677     1.37460
O531        O  0.55619004  0.59460464  0.85334264    -0.56720
O532        O  0.58199288  0.73847167  0.94727645    -0.55530
C533        C  0.55473749  0.53513012  0.49348690     0.78230
O534        O  0.53477883  0.68496112  0.50580685    -0.57900
O535        O  0.52237649  0.67574065  0.87855603    -0.56350
O536        O  0.65082864  0.63119748  0.51712517    -0.56340
O537        O  0.58353937  0.53412700  0.95154959    -0.55520
O538        O  0.75167864  0.63201675  0.57168860    -0.56720
C539        C  0.92086197  0.62639484  0.66820145     0.75900
O540        O  0.90336624  0.58956128  0.00527797    -0.57880
C541        C  0.74788299  0.64208079  0.52145400     0.75880
C542        C  0.89074173  0.74304795  0.52976979     0.78270
Cd543      Cd  0.85519440  0.63929372  0.57253805     1.37460
O544        O  0.88271351  0.66395268  0.66729797    -0.56680
O545        O  0.86299835  0.74232158  0.57246632    -0.55530
C546        C  0.87902423  0.54136974  0.51838994     0.78230
O547        O  0.91128457  0.69604540  0.01374707    -0.57900
O548        O  0.92059963  0.59131188  0.62965709    -0.56350
O549        O  0.79221625  0.65272759  0.49704238    -0.56340
O550        O  0.84930444  0.53855816  0.55995892    -0.55520
C551        C  0.47328560  0.87498532  0.71104243    -0.01400
C552        C  0.46727558  0.62508880  0.81147605    -0.01400
C553        C  0.47879181  0.94930355  0.79387291    -0.00760
C554        C  0.47256916  0.93949483  0.73837552     0.08920
C555        C  0.46646176  0.99310628  0.70648264    -0.00870
C556        C  0.46182524  0.55077181  0.72864583    -0.00870
C557        C  0.46804666  0.56058221  0.78414234     0.09060
C558        C  0.47417806  0.50697345  0.81603530    -0.01070
Br559      Br  0.47274964  0.50797475  0.89296356     0.00380
Br560      Br  0.49998612  0.88572105  0.84176900     0.00310
Br561      Br  0.44059168  0.61434038  0.68075280     0.00350
Br562      Br  0.46795751  0.99211642  0.62955642     0.00370
C563        C  0.52099920  0.77563028  0.74640196    -0.00760
C564        C  0.47447986  0.81363179  0.74531344     0.08920
C565        C  0.42476436  0.78651282  0.76498645    -0.00870
C566        C  0.41954540  0.72444699  0.77612869    -0.00870
C567        C  0.46606521  0.68644389  0.77720835     0.09060
C568        C  0.51577907  0.71356432  0.75753267    -0.01070
Br569      Br  0.57719316  0.66464063  0.74078114     0.00380
Br570      Br  0.59521766  0.80839053  0.74479721     0.00310
Br571      Br  0.34532486  0.69169416  0.77776836     0.00350
Br572      Br  0.36335706  0.83544432  0.78174259     0.00370
C573        C  0.92098113  0.51850035  0.73796787    -0.00760
C574        C  0.96422299  0.56267559  0.74369111     0.08920
C575        C  0.01190512  0.54199509  0.77089928    -0.00870
C576        C  0.01961518  0.98081795  0.78409198    -0.00870
C577        C  0.97633372  0.93671584  0.77855514     0.09060
C578        C  0.92864939  0.95734328  0.75134357    -0.01070
Br579      Br  0.87296623  0.90021396  0.72973241     0.00380
Br580      Br  0.84579104  0.53968088  0.72247907     0.00310
Br581      Br  0.09489622  0.95934435  0.79871072     0.00350
Br582      Br  0.06762566  0.59898236  0.79267483     0.00370
C583        C  0.95668858  0.69875659  0.79228342    -0.00760
C584        C  0.96880619  0.68919394  0.73785467     0.08920
C585        C  0.97904022  0.74325503  0.70715545    -0.00870
C586        C  0.98396187  0.80070603  0.73020445    -0.00870
C587        C  0.97179300  0.81028723  0.78461517     0.09060
C588        C  0.96153347  0.75623508  0.81532673    -0.01070
Br589      Br  0.96051233  0.75574971  0.89202181     0.00380
Br590      Br  0.92499016  0.63545901  0.83593017     0.00310
Br591      Br  0.01589388  0.86389680  0.68658112     0.00350
Br592      Br  0.97992024  0.74382281  0.63046173     0.00370
loop_ 
_geom_bond_atom_site_label_1 
_geom_bond_atom_site_label_2 
_geom_bond_distance 
_geom_bond_site_symmetry_2 
_ccdc_geom_bond_type 
O1            C4   1.273       .  A
O1           Cd6   2.539       .  S
C2            O7   1.280       .  A
C2          O159   1.256       .  A
C2          C163   1.479       .  S
O3          C157   1.264       .  A
O3         Cd154   2.381       .  S
C4           O12   1.265       .  A
C4          C107   1.550       .  S
C5            O8   1.270       .  A
C5          O158   1.266       .  A
C5           C44   1.420   1_554  S
Cd6          O13   2.325       .  S
Cd6          O12   2.410       .  S
Cd6           O7   2.533       .  S
Cd6           O8   2.334       .  S
Cd6         O151   2.382       .  S
Cd6         O159   2.439       .  S
Cd6         O158   2.359       .  S
C9           O13   1.267       .  A
C9          O151   1.264       .  A
C9          C344   1.418   1_554  S
O10         C153   1.266       .  A
O10        Cd154   2.359       .  S
O11         C150   1.256       .  A
O11        Cd154   2.439       .  S
O14          C17   1.274       .  A
O14         Cd19   2.537       .  S
C15          O20   1.280       .  A
C15         O172   1.257       .  A
C15         C150   1.479       .  S
O16          C22   1.268       .  A
O16        Cd167   2.377   1_554  S
C17          O25   1.265       .  A
C17          C54   1.541   1_455  S
C18          O23   1.264   1_556  A
C18         O169   1.267       .  A
C18          C31   1.416   1_556  S
Cd19         O26   2.317       .  S
Cd19         O25   2.404       .  S
Cd19         O20   2.519       .  S
Cd19         O21   2.342       .  S
Cd19        O164   2.377       .  S
Cd19        O172   2.451       .  S
Cd19        O171   2.356       .  S
O21         C166   1.267       .  A
C22         O174   1.270   1_554  A
C22         C331   1.421       .  S
O23        Cd167   2.355   1_554  S
O24         C163   1.257       .  A
O24        Cd167   2.451   1_554  S
O26         C170   1.270       .  A
O27          C30   1.272       .  A
O27         Cd32   2.554       .  S
C28          O37   1.257       .  A
C28          O33   1.281       .  A
C28         C189   1.479       .  S
O29         C183   1.266       .  A
O29        Cd180   2.352       .  S
C30          O38   1.266       .  A
C30          C53   1.552   1_455  S
C31          O34   1.267       .  A
C31         O184   1.264       .  A
Cd32         O39   2.342       .  S
Cd32         O38   2.403       .  S
Cd32         O37   2.442       .  S
Cd32         O33   2.527       .  S
Cd32         O34   2.303       .  S
Cd32        O177   2.352       .  S
Cd32        O184   2.391       .  S
C35          O39   1.271       .  A
C35         O177   1.266       .  A
C35         C318   1.421   1_545  S
O36         C179   1.264       .  A
O36        Cd180   2.391       .  S
O40          C43   1.274       .  A
O40         Cd45   2.543       .  S
C41          O46   1.280       .  A
C41         O198   1.256       .  A
C41         C176   1.479       .  S
O42          C48   1.264   1_554  A
O42        Cd193   2.370   1_554  S
C43          O51   1.265       .  A
C43         C108   1.544       .  S
C44          O49   1.267   1_556  A
C44         O195   1.270       .  A
Cd45         O52   2.336       .  S
Cd45         O51   2.405       .  S
Cd45         O46   2.527       .  S
Cd45         O47   2.323       .  S
Cd45        O190   2.370       .  S
Cd45        O198   2.446       .  S
Cd45        O197   2.368       .  S
O47         C192   1.270       .  A
C48         O200   1.267       .  A
C48         C305   1.418   1_546  S
O49        Cd193   2.368   1_554  S
O50         C189   1.256       .  A
O50        Cd193   2.446   1_554  S
O52         C196   1.267       .  A
C53          C95   1.541       .  S
C53         C130   1.628       .  S
C53         C140   1.634       .  S
C54          C56   1.552       .  S
C54         C133   1.628       .  S
C54         C143   1.634       .  S
O55          C58   1.281       .  A
O55         Cd60   2.527       .  S
C56          O65   1.266       .  A
C56          O61   1.272       .  A
O57          C63   1.266       .  A
O57        Cd208   2.351       .  S
C58         O214   1.257       .  A
C58         C217   1.479       .  S
C59          O64   1.265   1_556  A
C59         O210   1.267       .  A
C59          C98   1.416   1_556  S
Cd60         O67   2.343       .  S
Cd60         O65   2.403       .  S
Cd60         O61   2.554       .  S
Cd60         O62   2.302       .  S
Cd60        O205   2.351       .  S
Cd60        O214   2.442       .  S
Cd60        O212   2.391       .  S
O62         C207   1.267       .  A
C63         O215   1.271       .  A
C63         C398   1.421   1_556  S
O64        Cd208   2.391   1_554  S
O66         C206   1.257   1_554  A
O66        Cd208   2.442   1_554  S
O67         C211   1.271       .  A
O68          C71   1.274       .  A
O68         Cd73   2.543       .  S
C69          O74   1.280       .  A
C69         O226   1.256   1_554  A
C69         C206   1.479   1_554  S
O70         C224   1.267       .  A
O70        Cd221   2.367       .  S
C71          O79   1.265       .  A
C71         C107   1.544       .  S
C72          O75   1.267       .  A
C72         O225   1.264       .  A
C72         C385   1.418   1_554  S
Cd73         O80   2.322       .  S
Cd73         O79   2.405       .  S
Cd73         O74   2.527       .  S
Cd73         O75   2.336       .  S
Cd73        O218   2.368       .  S
Cd73        O226   2.447   1_554  S
Cd73        O225   2.370       .  S
C76          O80   1.270       .  A
C76         O218   1.267       .  A
C76          C85   1.420   1_554  S
O77         C220   1.264       .  A
O77        Cd221   2.370       .  S
O78         C217   1.256       .  A
O78        Cd221   2.447       .  S
O81          C84   1.280       .  A
O81         Cd86   2.533       .  S
C82          O91   1.265       .  A
C82          O87   1.273       .  A
C82         C108   1.550       .  S
O83          C89   1.264   1_554  A
O83        Cd234   2.382   1_554  S
C84         O240   1.256       .  A
C84         C245   1.479       .  S
C85          O90   1.266   1_556  A
C85         O236   1.270       .  A
Cd86         O93   2.326       .  S
Cd86         O91   2.409       .  S
Cd86         O87   2.538       .  S
Cd86         O88   2.334       .  S
Cd86        O231   2.382       .  S
Cd86        O240   2.439       .  S
Cd86        O238   2.359       .  S
O88         C233   1.270       .  A
C89         O241   1.267       .  A
C89         C368   1.418   1_546  S
O90        Cd234   2.359   1_554  S
O92         C232   1.256   1_554  A
O92        Cd234   2.439   1_554  S
O93         C237   1.267       .  A
O94          C97   1.280       .  A
O94         Cd99   2.519       .  S
C95         O104   1.265       .  A
C95         O100   1.275       .  A
O96         C250   1.268       .  A
O96        Cd247   2.377       .  S
C97         O105   1.257   1_554  A
C97         C232   1.479   1_554  S
C98         O101   1.267       .  A
C98         O251   1.264       .  A
Cd99        O106   2.316       .  S
Cd99        O105   2.451   1_554  S
Cd99        O104   2.403       .  S
Cd99        O100   2.538       .  S
Cd99        O101   2.343       .  S
Cd99        O244   2.377       .  S
Cd99        O251   2.355       .  S
C102        O106   1.270       .  A
C102        O244   1.268       .  A
C102        C359   1.421   1_544  S
O103        C246   1.264       .  A
O103       Cd247   2.355       .  S
C107        C110   1.630       .  S
C107        C120   1.623       .  S
C108        C113   1.630       .  S
C108        C123   1.623       .  S
C109        C110   1.421       .  A
C109        C410   1.440       .  A
C109       Br116   1.937       .  S
C110        C111   1.453       .  A
C111        C408   1.440       .  A
C111       Br118   1.931       .  S
C112        C113   1.421       .  A
C112        C407   1.440   1_545  A
C112       Br117   1.937       .  S
C113        C114   1.453       .  A
C114        C405   1.440   1_545  A
C114       Br115   1.931       .  S
C119        C120   1.439       .  A
C119        C124   1.434       .  A
C119       Br126   1.936       .  S
C120        C121   1.428       .  A
C121        C122   1.434       .  A
C121       Br128   1.934       .  S
C122        C123   1.439       .  A
C122       Br127   1.936       .  S
C123        C124   1.428       .  A
C124       Br125   1.934       .  S
C129        C130   1.445       .  A
C129        C430   1.438   1_545  A
C129       Br136   1.938       .  S
C130        C131   1.428   1_655  A
C131        C428   1.438   1_545  A
C131       Br138   1.937       .  S
C132        C133   1.444   1_455  A
C132        C427   1.438       .  A
C132       Br137   1.937       .  S
C133        C134   1.427       .  A
C134        C425   1.438       .  A
C134       Br135   1.937       .  S
C139        C140   1.420       .  A
C139        C144   1.440       .  A
C139       Br146   1.936       .  S
C140        C141   1.453       .  A
C141        C142   1.440       .  A
C141       Br148   1.924       .  S
C142        C143   1.420       .  A
C142       Br147   1.936   1_655  S
C143        C144   1.453       .  A
C144       Br145   1.924       .  S
O149        C152   1.273       .  A
O149       Cd154   2.539       .  S
C150        O155   1.280       .  A
C152        O160   1.265       .  A
C152        C255   1.550       .  S
C153        O156   1.270       .  A
C153        C192   1.420       .  S
Cd154       O161   2.325       .  S
Cd154       O160   2.410       .  S
Cd154       O155   2.533       .  S
Cd154       O156   2.334       .  S
C157        O161   1.267       .  A
C157        C492   1.418       .  S
O162        C165   1.274       .  A
O162       Cd167   2.537       .  S
C163        O168   1.280   1_554  A
O164        C170   1.268       .  A
C165        O173   1.265       .  A
C165        C202   1.541   1_455  S
C166        O171   1.264       .  A
C166        C179   1.416       .  S
Cd167       O174   2.317       .  S
Cd167       O173   2.404       .  S
Cd167       O168   2.519       .  S
Cd167       O169   2.342       .  S
C170        C479   1.421       .  S
O175        C178   1.272       .  A
O175       Cd180   2.554       .  S
C176        O185   1.257       .  A
C176        O181   1.281       .  A
C178        O186   1.266       .  A
C178        C201   1.552   1_455  S
C179        O182   1.267       .  A
Cd180       O187   2.342       .  S
Cd180       O186   2.403       .  S
Cd180       O185   2.442       .  S
Cd180       O181   2.527       .  S
Cd180       O182   2.303       .  S
C183        O187   1.271       .  A
C183        C466   1.421   1_545  S
O188        C191   1.274       .  A
O188       Cd193   2.543       .  S
C189        O194   1.280   1_554  A
O190        C196   1.264       .  A
C191        O199   1.265       .  A
C191        C256   1.544       .  S
C192        O197   1.267       .  A
Cd193       O200   2.336       .  S
Cd193       O199   2.405       .  S
Cd193       O194   2.527       .  S
Cd193       O195   2.322       .  S
C196        C453   1.418   1_545  S
C201        C243   1.541       .  S
C201        C278   1.628       .  S
C201        C288   1.634       .  S
C202        C204   1.552       .  S
C202        C281   1.628       .  S
C202        C291   1.634       .  S
O203        C206   1.281       .  A
O203       Cd208   2.527       .  S
C204        O213   1.266       .  A
C204        O209   1.272       .  A
O205        C211   1.266       .  A
C207        O212   1.265       .  A
C207        C246   1.416       .  S
Cd208       O215   2.343       .  S
Cd208       O213   2.403       .  S
Cd208       O209   2.554       .  S
Cd208       O210   2.302       .  S
C211        C546   1.421       .  S
O216        C219   1.274       .  A
O216       Cd221   2.543       .  S
C217        O222   1.280       .  A
C219        O227   1.265       .  A
C219        C255   1.544       .  S
C220        O223   1.267       .  A
C220        C533   1.418       .  S
Cd221       O228   2.322       .  S
Cd221       O227   2.405       .  S
Cd221       O222   2.527       .  S
Cd221       O223   2.336       .  S
C224        O228   1.270       .  A
C224        C233   1.420       .  S
O229        C232   1.280       .  A
O229       Cd234   2.533       .  S
C230        O239   1.265       .  A
C230        O235   1.273       .  A
C230        C256   1.550       .  S
O231        C237   1.264       .  A
C233        O238   1.266       .  A
Cd234       O241   2.325       .  S
Cd234       O239   2.409       .  S
Cd234       O235   2.539       .  S
Cd234       O236   2.334       .  S
C237        C516   1.418   1_545  S
O242        C245   1.280       .  A
O242       Cd247   2.519       .  S
C243        O252   1.265       .  A
C243        O248   1.275       .  A
C245        O253   1.257       .  A
C246        O249   1.267       .  A
Cd247       O254   2.316       .  S
Cd247       O253   2.451       .  S
Cd247       O252   2.403       .  S
Cd247       O248   2.538       .  S
Cd247       O249   2.343       .  S
C250        O254   1.270       .  A
C250        C507   1.421   1_545  S
C255        C258   1.630       .  S
C255        C268   1.623       .  S
C256        C261   1.630       .  S
C256        C271   1.623       .  S
C257        C258   1.421       .  A
C257        C558   1.440       .  A
C257       Br264   1.937       .  S
C258        C259   1.453       .  A
C259        C556   1.440       .  A
C259       Br266   1.931       .  S
C260        C555   1.440   1_545  A
C260        C261   1.421       .  A
C260       Br265   1.937       .  S
C261        C262   1.453       .  A
C262        C553   1.440   1_545  A
C262       Br263   1.931       .  S
C267        C268   1.439       .  A
C267        C272   1.434       .  A
C267       Br274   1.936       .  S
C268        C269   1.428       .  A
C269        C270   1.434       .  A
C269       Br276   1.934       .  S
C270        C271   1.439       .  A
C270       Br275   1.936       .  S
C271        C272   1.428       .  A
C272       Br273   1.934       .  S
C277        C278   1.445       .  A
C277        C578   1.438   1_545  A
C277       Br284   1.938       .  S
C278        C279   1.428   1_655  A
C279        C576   1.438   1_545  A
C279       Br286   1.937       .  S
C280        C575   1.438       .  A
C280        C281   1.444   1_455  A
C280       Br285   1.937       .  S
C281        C282   1.427       .  A
C282        C573   1.438       .  A
C282       Br283   1.937       .  S
C287        C288   1.420       .  A
C287        C292   1.440       .  A
C287       Br294   1.936       .  S
C288        C289   1.453       .  A
C289        C290   1.440       .  A
C289       Br296   1.924       .  S
C290        C291   1.420       .  A
C290       Br295   1.936   1_655  S
C291        C292   1.453       .  A
C292       Br293   1.924       .  S
O297        C300   1.273       .  A
O297       Cd302   2.539       .  S
C298        O455   1.256       .  A
C298        O303   1.280       .  A
C298        C459   1.479       .  S
O299        C453   1.264       .  A
O299       Cd450   2.381       .  S
C300        O308   1.265       .  A
C300        C403   1.550       .  S
C301        O454   1.266       .  A
C301        O304   1.270       .  A
C301        C340   1.420   1_554  S
Cd302       O447   2.382       .  S
Cd302       O309   2.325       .  S
Cd302       O308   2.410       .  S
Cd302       O455   2.439       .  S
Cd302       O303   2.533       .  S
Cd302       O454   2.359       .  S
Cd302       O304   2.334       .  S
C305        O447   1.264       .  A
C305        O309   1.267       .  A
O306        C449   1.266       .  A
O306       Cd450   2.359       .  S
O307        C446   1.256       .  A
O307       Cd450   2.439       .  S
O310        C313   1.274       .  A
O310       Cd315   2.537       .  S
C311        O468   1.257       .  A
C311        O316   1.280       .  A
C311        C446   1.479       .  S
O312        C318   1.268       .  A
O312       Cd463   2.377   1_554  S
C313        O321   1.265       .  A
C313        C350   1.541   1_455  S
C314        O319   1.264   1_556  A
C314        O465   1.267       .  A
C314        C327   1.416   1_556  S
Cd315       O460   2.377       .  S
Cd315       O322   2.317       .  S
Cd315       O321   2.404       .  S
Cd315       O468   2.451       .  S
Cd315       O316   2.519       .  S
Cd315       O467   2.356       .  S
Cd315       O317   2.342       .  S
O317        C462   1.267       .  A
C318        O470   1.270   1_554  A
O319       Cd463   2.355   1_554  S
O320        C459   1.257       .  A
O320       Cd463   2.451   1_554  S
O322        C466   1.270       .  A
O323        C326   1.272       .  A
O323       Cd328   2.554       .  S
C324        O333   1.257       .  A
C324        O329   1.281       .  A
C324        C485   1.479       .  S
O325        C479   1.266       .  A
O325       Cd476   2.352       .  S
C326        O334   1.266       .  A
C326        C349   1.552   1_455  S
C327        O480   1.264       .  A
C327        O330   1.267       .  A
Cd328       O473   2.352       .  S
Cd328       O335   2.342       .  S
Cd328       O334   2.403       .  S
Cd328       O333   2.442       .  S
Cd328       O329   2.527       .  S
Cd328       O480   2.391       .  S
Cd328       O330   2.303       .  S
C331        O473   1.266       .  A
C331        O335   1.271       .  A
O332        C475   1.264       .  A
O332       Cd476   2.391       .  S
O336        C339   1.274       .  A
O336       Cd341   2.543       .  S
C337        O494   1.256       .  A
C337        O342   1.280       .  A
C337        C472   1.479       .  S
O338        C344   1.264   1_554  A
O338       Cd489   2.370   1_554  S
C339        O347   1.265       .  A
C339        C404   1.544       .  S
C340        O345   1.267   1_556  A
C340        O491   1.270       .  A
Cd341       O486   2.370       .  S
Cd341       O348   2.336       .  S
Cd341       O347   2.405       .  S
Cd341       O494   2.446       .  S
Cd341       O342   2.527       .  S
Cd341       O493   2.368       .  S
Cd341       O343   2.323       .  S
O343        C488   1.270       .  A
C344        O496   1.267       .  A
O345       Cd489   2.368   1_554  S
O346        C485   1.256       .  A
O346       Cd489   2.446   1_554  S
O348        C492   1.267       .  A
C349        C391   1.541       .  S
C349        C426   1.628       .  S
C349        C436   1.634       .  S
C350        C352   1.552       .  S
C350        C429   1.628       .  S
C350        C439   1.634       .  S
O351        C354   1.281       .  A
O351       Cd356   2.527       .  S
C352        O361   1.266       .  A
C352        O357   1.272       .  A
O353        C359   1.266       .  A
O353       Cd504   2.351       .  S
C354        O510   1.257       .  A
C354        C513   1.479       .  S
C355        O360   1.265   1_556  A
C355        O506   1.267       .  A
C355        C394   1.416   1_556  S
Cd356       O501   2.351       .  S
Cd356       O363   2.343       .  S
Cd356       O510   2.442       .  S
Cd356       O361   2.403       .  S
Cd356       O357   2.554       .  S
Cd356       O508   2.391       .  S
Cd356       O358   2.302       .  S
O358        C503   1.267       .  A
C359        O511   1.271       .  A
O360       Cd504   2.391   1_554  S
O362        C502   1.257   1_554  A
O362       Cd504   2.442   1_554  S
O363        C507   1.271       .  A
O364        C367   1.274       .  A
O364       Cd369   2.543       .  S
C365        O522   1.256   1_554  A
C365        O370   1.280       .  A
C365        C502   1.479   1_554  S
O366        C520   1.267       .  A
O366       Cd517   2.367       .  S
C367        O375   1.265       .  A
C367        C403   1.544       .  S
C368        O521   1.264       .  A
C368        O371   1.267       .  A
Cd369       O514   2.368       .  S
Cd369       O376   2.322       .  S
Cd369       O375   2.405       .  S
Cd369       O522   2.447   1_554  S
Cd369       O370   2.527       .  S
Cd369       O521   2.370       .  S
Cd369       O371   2.336       .  S
C372        O514   1.267       .  A
C372        O376   1.270       .  A
C372        C381   1.420   1_554  S
O373        C516   1.264       .  A
O373       Cd517   2.370       .  S
O374        C513   1.256       .  A
O374       Cd517   2.447       .  S
O377        C380   1.280       .  A
O377       Cd382   2.533       .  S
C378        O387   1.265       .  A
C378        O383   1.273       .  A
C378        C404   1.550       .  S
O379        C385   1.264   1_554  A
O379       Cd530   2.382   1_554  S
C380        O536   1.256       .  A
C380        C541   1.479       .  S
C381        O386   1.266   1_556  A
C381        O532   1.270       .  A
Cd382       O527   2.382       .  S
Cd382       O389   2.326       .  S
Cd382       O536   2.439       .  S
Cd382       O387   2.409       .  S
Cd382       O383   2.538       .  S
Cd382       O534   2.359       .  S
Cd382       O384   2.334       .  S
O384        C529   1.270       .  A
C385        O537   1.267       .  A
O386       Cd530   2.359   1_554  S
O388        C528   1.256   1_554  A
O388       Cd530   2.439   1_554  S
O389        C533   1.267       .  A
O390        C393   1.280       .  A
O390       Cd395   2.519       .  S
C391        O400   1.265       .  A
C391        O396   1.275       .  A
O392        C546   1.268       .  A
O392       Cd543   2.377       .  S
C393        O401   1.257   1_554  A
C393        C528   1.479   1_554  S
C394        O547   1.264       .  A
C394        O397   1.267       .  A
Cd395       O540   2.377       .  S
Cd395       O402   2.316       .  S
Cd395       O401   2.451   1_554  S
Cd395       O400   2.403       .  S
Cd395       O396   2.538       .  S
Cd395       O547   2.355       .  S
Cd395       O397   2.343       .  S
C398        O540   1.268       .  A
C398        O402   1.270       .  A
O399        C542   1.264       .  A
O399       Cd543   2.355       .  S
C403        C406   1.630       .  S
C403        C416   1.623       .  S
C404        C409   1.630       .  S
C404        C419   1.623       .  S
C405        C406   1.421       .  A
C405       Br412   1.937       .  S
C406        C407   1.453       .  A
C407       Br414   1.931       .  S
C408        C409   1.421       .  A
C408       Br413   1.937       .  S
C409        C410   1.453       .  A
C410       Br411   1.931       .  S
C415        C416   1.439       .  A
C415        C420   1.434       .  A
C415       Br422   1.936       .  S
C416        C417   1.428       .  A
C417        C418   1.434       .  A
C417       Br424   1.934       .  S
C418        C419   1.439       .  A
C418       Br423   1.936       .  S
C419        C420   1.428       .  A
C420       Br421   1.934       .  S
C425        C426   1.445       .  A
C425       Br432   1.938       .  S
C426        C427   1.428   1_655  A
C427       Br434   1.937       .  S
C428        C429   1.444   1_455  A
C428       Br433   1.937       .  S
C429        C430   1.427       .  A
C430       Br431   1.937       .  S
C435        C436   1.420       .  A
C435        C440   1.440       .  A
C435       Br442   1.936       .  S
C436        C437   1.453       .  A
C437        C438   1.440       .  A
C437       Br444   1.924       .  S
C438        C439   1.420       .  A
C438       Br443   1.936   1_655  S
C439        C440   1.453       .  A
C440       Br441   1.924       .  S
O445        C448   1.273       .  A
O445       Cd450   2.539       .  S
C446        O451   1.280       .  A
C448        O456   1.265       .  A
C448        C551   1.550       .  S
C449        O452   1.270       .  A
C449        C488   1.420       .  S
Cd450       O457   2.325       .  S
Cd450       O456   2.410       .  S
Cd450       O451   2.533       .  S
Cd450       O452   2.334       .  S
C453        O457   1.267       .  A
O458        C461   1.274       .  A
O458       Cd463   2.537       .  S
C459        O464   1.280   1_554  A
O460        C466   1.268       .  A
C461        O469   1.265       .  A
C461        C498   1.541   1_455  S
C462        O467   1.264       .  A
C462        C475   1.416       .  S
Cd463       O470   2.317       .  S
Cd463       O469   2.404       .  S
Cd463       O464   2.519       .  S
Cd463       O465   2.342       .  S
O471        C474   1.272       .  A
O471       Cd476   2.554       .  S
C472        O481   1.257       .  A
C472        O477   1.281       .  A
C474        O482   1.266       .  A
C474        C497   1.552   1_455  S
C475        O478   1.267       .  A
Cd476       O483   2.342       .  S
Cd476       O482   2.403       .  S
Cd476       O481   2.442       .  S
Cd476       O477   2.527       .  S
Cd476       O478   2.303       .  S
C479        O483   1.271       .  A
O484        C487   1.274       .  A
O484       Cd489   2.543       .  S
C485        O490   1.280   1_554  A
O486        C492   1.264       .  A
C487        O495   1.265       .  A
C487        C552   1.544       .  S
C488        O493   1.267       .  A
Cd489       O496   2.336       .  S
Cd489       O495   2.405       .  S
Cd489       O490   2.527       .  S
Cd489       O491   2.322       .  S
C497        C539   1.541       .  S
C497        C574   1.628       .  S
C497        C584   1.634       .  S
C498        C500   1.552       .  S
C498        C577   1.628       .  S
C498        C587   1.634       .  S
O499        C502   1.281       .  A
O499       Cd504   2.527       .  S
C500        O509   1.266       .  A
C500        O505   1.272       .  A
O501        C507   1.266       .  A
C503        O508   1.265       .  A
C503        C542   1.416       .  S
Cd504       O511   2.343       .  S
Cd504       O509   2.403       .  S
Cd504       O505   2.554       .  S
Cd504       O506   2.302       .  S
O512        C515   1.274       .  A
O512       Cd517   2.543       .  S
C513        O518   1.280       .  A
C515        O523   1.265       .  A
C515        C551   1.544       .  S
C516        O519   1.267       .  A
Cd517       O524   2.322       .  S
Cd517       O523   2.405       .  S
Cd517       O518   2.527       .  S
Cd517       O519   2.336       .  S
C520        O524   1.270       .  A
C520        C529   1.420       .  S
O525        C528   1.280       .  A
O525       Cd530   2.533       .  S
C526        O535   1.265       .  A
C526        O531   1.273       .  A
C526        C552   1.550       .  S
O527        C533   1.264       .  A
C529        O534   1.266       .  A
Cd530       O537   2.325       .  S
Cd530       O535   2.409       .  S
Cd530       O531   2.539       .  S
Cd530       O532   2.334       .  S
O538        C541   1.280       .  A
O538       Cd543   2.519       .  S
C539        O548   1.265       .  A
C539        O544   1.275       .  A
C541        O549   1.257       .  A
C542        O545   1.267       .  A
Cd543       O550   2.316       .  S
Cd543       O549   2.451       .  S
Cd543       O548   2.403       .  S
Cd543       O544   2.538       .  S
Cd543       O545   2.343       .  S
C546        O550   1.270       .  A
C551        C554   1.630       .  S
C551        C564   1.623       .  S
C552        C557   1.630       .  S
C552        C567   1.623       .  S
C553        C554   1.421       .  A
C553       Br560   1.937       .  S
C554        C555   1.453       .  A
C555       Br562   1.931       .  S
C556        C557   1.421       .  A
C556       Br561   1.937       .  S
C557        C558   1.453       .  A
C558       Br559   1.931       .  S
C563        C564   1.439       .  A
C563        C568   1.434       .  A
C563       Br570   1.936       .  S
C564        C565   1.428       .  A
C565        C566   1.434       .  A
C565       Br572   1.934       .  S
C566        C567   1.439       .  A
C566       Br571   1.936       .  S
C567        C568   1.428       .  A
C568       Br569   1.934       .  S
C573        C574   1.445       .  A
C573       Br580   1.938       .  S
C574        C575   1.428   1_655  A
C575       Br582   1.937       .  S
C576        C577   1.444   1_455  A
C576       Br581   1.937       .  S
C577        C578   1.427       .  A
C578       Br579   1.937       .  S
C583        C584   1.420       .  A
C583        C588   1.440       .  A
C583       Br590   1.936       .  S
C584        C585   1.453       .  A
C585        C586   1.440       .  A
C585       Br592   1.924       .  S
C586        C587   1.420       .  A
C586       Br591   1.936   1_655  S
C587        C588   1.453       .  A
C588       Br589   1.924       .  S
