geometry optimzed in LAMMPS
_audit_creation_date              2020-11-30 
_audit_creation_method            'lammps2cif' 
_symmetry_space_group_name_H-M    'P1' 
_symmetry_Int_Tables_number       1 
_symmetry_cell_setting            triclinic 
loop_ 
_symmetry_equiv_pos_as_xyz 
  x,y,z 
_cell_length_a                    35.84605579 
_cell_length_b                    35.91013230072009 
_cell_length_c                    37.88393084558906 
_cell_angle_alpha                 85.03563271912604 
_cell_angle_beta                  90.6061399330398 
_cell_angle_gamma                 126.88795153240545 
loop_ 
_atom_site_label 
_atom_site_type_symbol 
_atom_site_fract_x 
_atom_site_fract_y 
_atom_site_fract_z 
_atom_site_charge 
In1        In  0.32802694  0.98231732  0.22318431     1.36900
C2          C  0.39562738  0.97856443  0.19090606     0.77000
O3          O  0.36906099  0.05330327  0.20047690    -0.61500
O4          O  0.37282489  0.03412465  0.25633702    -0.52400
C5          C  0.26425012  0.99525675  0.23196647     0.69600
O6          O  0.27545550  0.49014699  0.19454317    -0.47300
C7          C  0.28740013  0.40630285  0.24898065     0.74300
O8          O  0.36220534  0.97527529  0.17500549    -0.59100
O9          O  0.30894628  0.44165055  0.26620456    -0.49200
O10         O  0.39553800  0.48345889  0.21816140    -0.55600
C11         C  0.38797582  0.06482765  0.23005768     0.84500
O12         O  0.28828938  0.99596888  0.25677464    -0.57400
O13         O  0.27655608  0.41041469  0.21758803    -0.60700
In14       In  0.51360149  0.16729969  0.24112240     1.36900
C15         C  0.51894526  0.09811811  0.27483640     0.77000
O16         O  0.44339081  0.12462498  0.26219195    -0.61500
O17         O  0.46045835  0.12553215  0.20653766    -0.52400
C18         C  0.50087056  0.23208027  0.23456761     0.69600
O19         O  0.01286110  0.22200845  0.26318872    -0.47300
C20         C  0.09155136  0.21205635  0.20755763     0.74300
O21         O  0.52287044  0.13064408  0.29011489    -0.59100
O22         O  0.05497508  0.19021517  0.19042116    -0.49200
O23         O  0.01516720  0.10233095  0.24122192    -0.55600
C24         C  0.43078744  0.10801397  0.23246013     0.84500
O25         O  0.49844269  0.21059523  0.20903399    -0.57400
O26         O  0.08924333  0.22265162  0.23816321    -0.60700
In27       In  0.48119712  0.33307148  0.22272270     1.36900
C28         C  0.47640041  0.40247090  0.18867585     0.77000
O29         O  0.40713655  0.27848247  0.22462139    -0.61500
O30         O  0.44136525  0.31082255  0.27240448    -0.52400
C31         C  0.49318183  0.26779985  0.22943621     0.69600
O32         O  0.48353182  0.27910566  0.19966115    -0.47300
C33         C  0.06543150  0.39300335  0.23048801     0.74300
O34         O  0.47209901  0.36967257  0.17354303    -0.59100
O35         O  0.03574894  0.37546006  0.25640531    -0.49200
O36         O  0.48115967  0.39873926  0.22169477    -0.55600
C37         C  0.40480533  0.28901765  0.25524694     0.84500
O38         O  0.49612406  0.28965368  0.25487973    -0.57400
O39         O  0.05284396  0.37642470  0.20074400    -0.60700
In40       In  0.15246386  0.15599680  0.19809831     1.36900
C41         C  0.06909274  0.07394490  0.17955832     0.77000
O42         O  0.19820915  0.14249455  0.17582390    -0.61500
O43         O  0.17305374  0.12449651  0.23196914    -0.52400
C44         C  0.22735288  0.23003213  0.22387327     0.69600
O45         O  0.22298468  0.22659495  0.19038704    -0.47300
C46         C  0.12146950  0.19994751  0.20264927     0.74300
O47         O  0.10178411  0.10683822  0.15785444    -0.59100
O48         O  0.12208071  0.17594089  0.22896395    -0.49200
O49         O  0.07916212  0.08282494  0.21153192    -0.55600
C50         C  0.19660557  0.12477797  0.20702666     0.84500
O51         O  0.19330931  0.19564070  0.24361224    -0.57400
O52         O  0.13847859  0.20246547  0.17229925    -0.60700
In53       In  0.16572260  0.01646862  0.24652103     1.36900
C54         C  0.09797563  0.02065379  0.27767365     0.77000
O55         O  0.21971606  0.09058215  0.24543816    -0.61500
O56         O  0.18733006  0.05931793  0.19682829    -0.52400
C57         C  0.22932224  0.00314912  0.23829782     0.69600
O58         O  0.22079379  0.01083842  0.26850263    -0.47300
C59         C  0.10824764  0.43617346  0.23291817     0.74300
O60         O  0.13089833  0.02353873  0.29410447    -0.59100
O61         O  0.12342867  0.46690466  0.20665552    -0.49200
O62         O  0.10278047  0.51916323  0.23926454    -0.55600
C63         C  0.20888023  0.09467814  0.21403854     0.84500
O64         O  0.20551978  0.00259875  0.21338063    -0.57400
O65         O  0.12714233  0.44765422  0.26250968    -0.60700
C66         C  0.47617296  0.98445755  0.11809148     0.85900
C67         C  0.43512045  0.98077830  0.13546491    -0.54400
C68         C  0.43436461  0.97988319  0.17158992     0.08800
C69         C  0.47748558  0.98271900  0.18701683     0.19700
C70         C  0.02000394  0.02832494  0.13076869    -0.55100
C71         C  0.02369883  0.02978476  0.16655162     0.08900
C72         C  0.47721486  0.44497254  0.13219794    -0.54600
C73         C  0.47723694  0.44226597  0.16833907     0.09500
H74         H  0.40879718  0.98014387  0.12071696     0.14000
H75         H  0.47594625  0.97986271  0.21557454    -0.00300
H76         H  0.04705549  0.05677583  0.11217507     0.14300
H77         H  0.47601488  0.41977096  0.11730326     0.14100
C78         C  0.52027190  0.51664082  0.34532780     0.85900
C79         C  0.51929757  0.05625165  0.33112467    -0.54400
C80         C  0.51870070  0.05860620  0.29503125     0.08800
C81         C  0.51814823  0.51789792  0.27646171     0.19700
C82         C  0.47624213  0.47261038  0.33225169    -0.55100
C83         C  0.47256142  0.47118385  0.29646571     0.08900
C84         C  0.05776372  0.01858717  0.33245604    -0.54600
C85         C  0.05908419  0.01954900  0.29637733     0.09500
H86         H  0.52071839  0.08159533  0.34599082     0.14000
H87         H  0.51924242  0.52049018  0.24791266    -0.00300
H88         H  0.44918727  0.44414074  0.35083365     0.14300
H89         H  0.08379066  0.01901175  0.34747110     0.14100
In90       In  0.34383268  0.34499078  0.26485271     1.36900
C91         C  0.42718384  0.42702963  0.28343606     0.77000
O92         O  0.35786197  0.29852107  0.29056628    -0.61500
O93         O  0.37422869  0.32511736  0.23391482    -0.52400
C94         C  0.26893390  0.27095495  0.23908736     0.69600
O95         O  0.27332009  0.27438193  0.27257399    -0.47300
C96         C  0.29968318  0.37620611  0.25596612     0.74300
O97         O  0.39450008  0.39409908  0.30512542    -0.59100
O98         O  0.32323535  0.37650941  0.23101119    -0.49200
O99         O  0.41712051  0.41819234  0.25145485    -0.55600
C100        C  0.37486448  0.30108831  0.26019811     0.84500
O101        O  0.30296181  0.30535718  0.21934501    -0.57400
O102        O  0.29808236  0.35846716  0.28715857    -0.60700
C103        C  0.07400887  0.01611464  0.47153078    -0.18500
C104        C  0.06687582  0.00988743  0.50845791    -0.20600
C105        C  0.02594796  0.99966082  0.02405127     0.20000
C106        C  0.49317815  0.99740567  0.50253998    -0.03500
C107        C  0.50030298  0.00346986  0.46519465    -0.06600
C108        C  0.04028848  0.01213232  0.44947116     0.20300
C109        C  0.47026018  0.50122024  0.43899246     0.17700
C110        C  0.42940335  0.49117402  0.45455704    -0.18100
C111        C  0.41855907  0.98386832  0.99589567    -0.20300
C112        C  0.45213348  0.98757427  0.01799117     0.20000
C113        C  0.44556427  0.98227467  0.05515005    -0.33300
C114        C  0.47959200  0.98661796  0.07744327     0.00600
C115        C  0.02280403  0.49578841  0.05666730    -0.24700
C116        C  0.04693888  0.01755063  0.41235197    -0.29200
C117        C  0.51726412  0.51489523  0.38594190     0.06300
C118        C  0.47735584  0.50693436  0.40200746    -0.27900
H119        H  0.10586767  0.02384681  0.46021863     0.11000
H120        H  0.09341090  0.01301872  0.02488144     0.12200
H121        H  0.40284893  0.48797463  0.43815181     0.11200
H122        H  0.38683263  0.97643394  0.00719675     0.10500
H123        H  0.41380672  0.97478808  0.06601576     0.15900
H124        H  0.04914607  0.49882950  0.07329660     0.11800
H125        H  0.07897788  0.02558439  0.40159814     0.14600
H126        H  0.45097289  0.50390774  0.38543686     0.14400
In127      In  0.32803665  0.98232654  0.72319264     1.36900
C128        C  0.39566535  0.97862477  0.69089825     0.77000
O129        O  0.36908164  0.05332800  0.70052623    -0.61500
O130        O  0.37280810  0.03409410  0.75638084    -0.52400
C131        C  0.26424921  0.99525581  0.73197036     0.69600
O132        O  0.27543227  0.49012268  0.69454515    -0.47300
C133        C  0.28738748  0.40631229  0.74901443     0.74300
O134        O  0.36224678  0.97534549  0.67500016    -0.59100
O135        O  0.30894965  0.44167921  0.76621754    -0.49200
O136        O  0.39551642  0.48343835  0.71816463    -0.55600
C137        C  0.38797698  0.06482047  0.73011635     0.84500
O138        O  0.28827967  0.99595875  0.75678196    -0.57400
O139        O  0.27653459  0.41039846  0.71761907    -0.60700
In140      In  0.51358968  0.16728877  0.74123050     1.36900
C141        C  0.51894139  0.09809499  0.77490432     0.77000
O142        O  0.44337345  0.12457940  0.76228669    -0.61500
O143        O  0.46046806  0.12554494  0.70662583    -0.52400
C144        C  0.50081046  0.23203360  0.73472848     0.69600
O145        O  0.01275631  0.22193934  0.76338016    -0.47300
C146        C  0.09150040  0.21201530  0.70780167     0.74300
O147        O  0.52285647  0.13060328  0.79020263    -0.59100
O148        O  0.05494429  0.19023720  0.69063844    -0.49200
O149        O  0.01511190  0.10229217  0.74133510    -0.55600
C150        C  0.43078608  0.10799912  0.73254330     0.84500
O151        O  0.49838682  0.21056928  0.70918139    -0.57400
O152        O  0.08917376  0.22254726  0.73843008    -0.60700
In153      In  0.48112243  0.33301327  0.72292119     1.36900
C154        C  0.47631936  0.40237602  0.68878948     0.77000
O155        O  0.40706682  0.27837781  0.72488996    -0.61500
O156        O  0.44133432  0.31084526  0.77262328    -0.52400
C157        C  0.49310511  0.26774106  0.72961882     0.69600
O158        O  0.48342662  0.27903648  0.69985428    -0.47300
C159        C  0.06542986  0.39298868  0.73057034     0.74300
O160        O  0.47199063  0.36953830  0.67369962    -0.59100
O161        O  0.03575827  0.37547266  0.75649257    -0.49200
O162        O  0.48110444  0.39870098  0.72180898    -0.55600
C163        C  0.40475418  0.28897662  0.75549259     0.84500
O164        O  0.49606997  0.28960095  0.75506576    -0.57400
O165        O  0.05282653  0.37637975  0.70083770    -0.60700
In166      In  0.15243073  0.15599567  0.69818799     1.36900
C167        C  0.06908002  0.07396882  0.67959149     0.77000
O168        O  0.19818506  0.14251905  0.67589043    -0.61500
O169        O  0.17302163  0.12447362  0.73203488    -0.52400
C170        C  0.22732978  0.23002909  0.72395473     0.69600
O171        O  0.22294395  0.22660266  0.69046796    -0.47300
C172        C  0.12141634  0.19991388  0.70284831     0.74300
O173        O  0.10177191  0.10689767  0.65790613    -0.59100
O174        O  0.12203148  0.17586558  0.72912741    -0.49200
O175        O  0.07913610  0.08280126  0.71157414    -0.55600
C176        C  0.19658089  0.12478057  0.70708378     0.84500
O177        O  0.19330140  0.19562679  0.74369692    -0.57400
O178        O  0.13842010  0.20248223  0.67248036    -0.60700
In179      In  0.16570782  0.01645513  0.74651604     1.36900
C180        C  0.09793363  0.02059227  0.77768245     0.77000
O181        O  0.21969520  0.09056584  0.74546892    -0.61500
O182        O  0.18733371  0.05934632  0.69684113    -0.52400
C183        C  0.22931487  0.00314109  0.73829874     0.69600
O184        O  0.22077087  0.01081421  0.76850457    -0.47300
C185        C  0.10824842  0.43616639  0.73297628     0.74300
O186        O  0.13085071  0.02346423  0.79411184    -0.59100
O187        O  0.12341148  0.46687441  0.70669895    -0.49200
O188        O  0.10279916  0.51918441  0.73926239    -0.55600
C189        C  0.20886807  0.09468739  0.71407206     0.84500
O190        O  0.20552266  0.00260165  0.71337772    -0.57400
O191        O  0.12716247  0.44767888  0.76255852    -0.60700
C192        C  0.47626061  0.98463687  0.61806056     0.85900
C193        C  0.43519392  0.98092318  0.63544405    -0.54400
C194        C  0.43441983  0.97997867  0.67157280     0.08800
C195        C  0.47754160  0.98280585  0.68699046     0.19700
C196        C  0.02002404  0.02839797  0.63077067    -0.55100
C197        C  0.02370078  0.02982194  0.66655727     0.08900
C198        C  0.47712205  0.44481051  0.63226649    -0.54600
C199        C  0.47715874  0.44215149  0.66840786     0.09500
H200        H  0.40887796  0.98030622  0.62069982     0.14000
H201        H  0.47599448  0.97991170  0.71555199    -0.00300
H202        H  0.04708333  0.05686548  0.61219094     0.14300
H203        H  0.47590869  0.41958256  0.61739772     0.14100
C204        C  0.52029977  0.51673204  0.84530452     0.85900
C205        C  0.51927390  0.05617878  0.83117116    -0.54400
C206        C  0.51869138  0.05856838  0.79507629     0.08800
C207        C  0.51814548  0.51791834  0.77644383     0.19700
C208        C  0.47626268  0.47268459  0.83225324    -0.55100
C209        C  0.47256371  0.47122208  0.79647081     0.08900
C210        C  0.05768816  0.01844581  0.83247650    -0.54600
C211        C  0.05902613  0.01945505  0.79639450     0.09500
H212        H  0.52068812  0.08150667  0.84605490     0.14000
H213        H  0.51923115  0.52048409  0.74789818    -0.00300
H214        H  0.44921659  0.44423253  0.85084884     0.14300
H215        H  0.08370874  0.01885255  0.84748812     0.14100
In216      In  0.34379949  0.34499018  0.76494239     1.36900
C217        C  0.42717126  0.42705440  0.78346901     0.77000
O218        O  0.35780319  0.29853856  0.79074815    -0.61500
O219        O  0.37417948  0.32504200  0.73407891    -0.52400
C220        C  0.26891079  0.27095208  0.73916888     0.69600
O221        O  0.27327935  0.27439007  0.77265496    -0.47300
C222        C  0.29965827  0.37620910  0.75602331     0.74300
O223        O  0.39448793  0.39415966  0.80517706    -0.59100
O224        O  0.32320279  0.37648679  0.73107689    -0.49200
O225        O  0.41709461  0.41816909  0.75149692    -0.55600
C226        C  0.37481121  0.30105498  0.76039815     0.84500
O227        O  0.30295400  0.30534341  0.71942967    -0.57400
O228        O  0.29805803  0.35849193  0.78722513    -0.60700
C229        C  0.07394748  0.01597107  0.97155304    -0.18500
C230        C  0.06682596  0.00975994  0.00848063    -0.20600
C231        C  0.02600580  0.99980868  0.52402562     0.20000
C232        C  0.49308456  0.99719378  0.00256931    -0.03500
C233        C  0.50022153  0.00327731  0.96522352    -0.06600
C234        C  0.04020737  0.01195084  0.94949686     0.20300
C235        C  0.47031858  0.50136990  0.93896600     0.17700
C236        C  0.42945419  0.49130397  0.95453354    -0.18100
C237        C  0.41861382  0.98399836  0.49587206    -0.20300
C238        C  0.45221274  0.98775259  0.51796460     0.20000
C239        C  0.44564956  0.98245963  0.55512347    -0.33300
C240        C  0.47969605  0.98683846  0.57741217     0.00600
C241        C  0.02276366  0.49567442  0.55669240    -0.24700
C242        C  0.04685111  0.01736404  0.91237789    -0.29200
C243        C  0.51731158  0.51502870  0.88591466     0.06300
C244        C  0.47739994  0.50705998  0.90198116    -0.27900
H245        H  0.10581415  0.02372309  0.96023804     0.11000
H246        H  0.09344522  0.01311468  0.52486126     0.12200
H247        H  0.40288369  0.48807343  0.93813045     0.11200
H248        H  0.38687628  0.97653670  0.50717530     0.10500
H249        H  0.41387832  0.97493836  0.56599328     0.15900
H250        H  0.04912513  0.49875462  0.57332015     0.11800
H251        H  0.07890175  0.02542599  0.90161937     0.14600
H252        H  0.45100176  0.50400284  0.88541243     0.14400
In253      In  0.33053488  0.48452858  0.21652583     1.36900
C254        C  0.39830890  0.48040190  0.18534580     0.77000
O255        O  0.37285494  0.55585727  0.19435837    -0.61500
O256        O  0.37488476  0.53544750  0.25028114    -0.52400
C257        C  0.26691075  0.49781792  0.22474960     0.69600
O258        O  0.27260361  0.98753187  0.20171300    -0.47300
C259        C  0.28488443  0.90385129  0.25539061     0.74300
O260        O  0.36538178  0.47751730  0.16892299    -0.59100
O261        O  0.30723480  0.93911547  0.27271673    -0.49200
O262        O  0.39345552  0.98182058  0.22376747    -0.55600
C263        C  0.39097014  0.56662744  0.22427554     0.84500
O264        O  0.29070681  0.49836189  0.24966925    -0.57400
O265        O  0.27340093  0.90832615  0.22433900    -0.60700
In266      In  0.51599913  0.66902918  0.23788623     1.36900
C267        C  0.52158853  0.59975133  0.27106138     0.77000
O268        O  0.44530767  0.62508421  0.25773813    -0.61500
O269        O  0.46405179  0.62809215  0.20211640    -0.52400
C270        C  0.50146453  0.73249608  0.23395426     0.69600
O271        O  0.01358814  0.72154830  0.26215553    -0.47300
C272        C  0.09391115  0.71485896  0.20418977     0.74300
O273        O  0.52546228  0.63209446  0.28656791    -0.59100
O274        O  0.05735228  0.69333292  0.18704774    -0.49200
O275        O  0.01765734  0.60412587  0.23756927    -0.55600
C276        C  0.43365441  0.60957477  0.22759782     0.84500
O277        O  0.49990346  0.71264309  0.20758507    -0.57400
O278        O  0.09150116  0.72503991  0.23492781    -0.60700
In279      In  0.47877724  0.83131770  0.22622443     1.36900
C280        C  0.47365754  0.90073893  0.19262100     0.77000
O281        O  0.40474130  0.77587949  0.22840718    -0.61500
O282        O  0.43893059  0.80774913  0.27622774    -0.52400
C283        C  0.49251475  0.76730785  0.23032471     0.69600
O284        O  0.48259064  0.77941802  0.20109093    -0.47300
C285        C  0.06256758  0.89141279  0.23551907     0.74300
O286        O  0.46934889  0.86805672  0.17731822    -0.59100
O287        O  0.03218088  0.87292784  0.26100614    -0.49200
O288        O  0.47856294  0.89686536  0.22558295    -0.55600
C289        C  0.40234666  0.78613095  0.25911877     0.84500
O290        O  0.49461206  0.78755904  0.25660393    -0.57400
O291        O  0.05089698  0.87587142  0.20539010    -0.60700
In292      In  0.15412643  0.65787424  0.19500536     1.36900
C293        C  0.07130493  0.57578819  0.17582470     0.77000
O294        O  0.20049218  0.64608959  0.17116189    -0.61500
O295        O  0.17545282  0.62597895  0.22738143    -0.52400
C296        C  0.22771626  0.73042687  0.22330259     0.69600
O297        O  0.22457022  0.72874253  0.18961596    -0.47300
C298        C  0.12330839  0.70205731  0.19934235     0.74300
O299        O  0.10390459  0.60916524  0.15435377    -0.59100
O300        O  0.12294586  0.67723099  0.22550303    -0.49200
O301        O  0.08110244  0.58429034  0.20789175    -0.55600
C302        C  0.19901080  0.62731488  0.20186617     0.84500
O303        O  0.19314635  0.69500540  0.24200198    -0.57400
O304        O  0.14097693  0.70507164  0.16914838    -0.60700
In305      In  0.16820658  0.51865712  0.23985105     1.36900
C306        C  0.10057784  0.52236922  0.27213249     0.77000
O307        O  0.22283585  0.59264162  0.23874888    -0.61500
O308        O  0.18905138  0.56191586  0.19034176    -0.52400
C309        C  0.23197668  0.50570343  0.23107832     0.69600
O310        O  0.22360594  0.51340924  0.26133354    -0.47300
C311        C  0.10526205  0.93436090  0.23881779     0.74300
O312        O  0.13398610  0.52563473  0.28803703    -0.59100
O313        O  0.12133909  0.96551971  0.21279728    -0.49200
O314        O  0.10073805  0.01756650  0.24486305    -0.55600
C315        C  0.21137677  0.59715336  0.20769681     0.84500
O316        O  0.20795350  0.50501078  0.20626473    -0.57400
O317        O  0.12339820  0.94515551  0.26872637    -0.60700
C318        C  0.47985879  0.48629484  0.11364179     0.85900
C319        C  0.43854626  0.48254386  0.13054652    -0.54400
C320        C  0.43721465  0.48154159  0.16662844     0.08800
C321        C  0.48004967  0.48435628  0.18261426     0.19700
C322        C  0.02333768  0.53008325  0.12661772    -0.55100
C323        C  0.02639575  0.53149198  0.16246487     0.08900
C324        C  0.47366447  0.94311946  0.13643402    -0.54600
C325        C  0.47427844  0.94052057  0.17253769     0.09500
H326        H  0.41251668  0.48212328  0.11553773     0.14000
H327        H  0.47788155  0.48132965  0.21119351    -0.00300
H328        H  0.05063083  0.55857741  0.10818683     0.14300
H329        H  0.47213293  0.91783192  0.12141083     0.14100
C330        C  0.51675562  0.01503262  0.34972258     0.85900
C331        C  0.52264630  0.55787560  0.32699763    -0.54400
C332        C  0.52152344  0.56021099  0.29094417     0.08800
C333        C  0.51566324  0.01633920  0.28081182     0.19700
C334        C  0.47295845  0.97100186  0.33641165    -0.55100
C335        C  0.46987774  0.96955522  0.30056890     0.08900
C336        C  0.06104255  0.52006679  0.32758216    -0.54600
C337        C  0.06182215  0.52101823  0.29145334     0.09500
H338        H  0.52435013  0.58325159  0.34202761     0.14000
H339        H  0.51737427  0.01904905  0.25225336    -0.00300
H340        H  0.44567874  0.94252154  0.35485863     0.14300
H341        H  0.08735077  0.52067102  0.34232846     0.14100
In342      In  0.34211154  0.84311597  0.26813163     1.36900
C343        C  0.42495491  0.92523886  0.28724173     0.77000
O344        O  0.35525025  0.79595187  0.29408986    -0.61500
O345        O  0.37327235  0.82367854  0.23771246    -0.52400
C346        C  0.26853332  0.77055736  0.23982812     0.69600
O347        O  0.27166131  0.77225422  0.27351418    -0.47300
C348        C  0.29723643  0.87368109  0.26124442     0.74300
O349        O  0.39236284  0.89189650  0.30873595    -0.59100
O350        O  0.32078087  0.87498695  0.23573457    -0.49200
O351        O  0.41513706  0.91668385  0.25518500    -0.55600
C352        C  0.37292401  0.79891278  0.26391495     0.84500
O353        O  0.30311840  0.80596734  0.22113141    -0.57400
O354        O  0.29575901  0.85492918  0.29195856    -0.60700
C355        C  0.07766120  0.51705622  0.46714595    -0.18500
C356        C  0.07059757  0.51102627  0.50409811    -0.20600
C357        C  0.02989900  0.50136018  0.01964947     0.20000
C358        C  0.49708060  0.49886512  0.49814456    -0.03500
C359        C  0.50420970  0.50497143  0.46079781    -0.06600
C360        C  0.04404514  0.51326985  0.44505635     0.20300
C361        C  0.46642462  0.99980938  0.44334615     0.17700
C362        C  0.42568281  0.99003164  0.45892021    -0.18100
C363        C  0.42232813  0.48509158  0.99146081    -0.20300
C364        C  0.45604930  0.48907546  0.01352011     0.20000
C365        C  0.44940154  0.48366127  0.05063905    -0.33300
C366        C  0.48359719  0.48849786  0.07299272     0.00600
C367        C  0.01887134  0.99397331  0.06103650    -0.24700
C368        C  0.05060373  0.51856061  0.40789755    -0.29200
C369        C  0.51346015  0.01330360  0.39033761     0.06300
C370        C  0.47351103  0.00536077  0.40632915    -0.27900
H371        H  0.10940808  0.52454005  0.45584021     0.11000
H372        H  0.09713426  0.51422400  0.02048968     0.12200
H373        H  0.39918099  0.98692779  0.44250473     0.11200
H374        H  0.39047284  0.47736714  0.00277325     0.10500
H375        H  0.41736469  0.47563328  0.06139439     0.15900
H376        H  0.04528126  0.99705281  0.07760281     0.11800
H377        H  0.08238702  0.52611041  0.39702490     0.14600
H378        H  0.44716109  0.00230186  0.38969943     0.14400
In379      In  0.33051980  0.48451512  0.71652090     1.36900
C380        C  0.39826668  0.48034036  0.68535474     0.77000
O381        O  0.37282390  0.55582761  0.69430943    -0.61500
O382        O  0.37489699  0.53547836  0.75023855    -0.52400
C383        C  0.26690331  0.49781019  0.72475053     0.69600
O384        O  0.27261804  0.98754719  0.70171572    -0.47300
C385        C  0.28489441  0.90383952  0.75536264     0.74300
O386        O  0.36533365  0.47744219  0.66893056    -0.59100
O387        O  0.30723234  0.93908596  0.77270788    -0.49200
O388        O  0.39347437  0.98184139  0.72376532    -0.55600
C389        C  0.39096128  0.56663325  0.72421663     0.84500
O390        O  0.29070981  0.49836538  0.74966636    -0.57400
O391        O  0.27341633  0.90833795  0.72431502    -0.60700
In392      In  0.51600723  0.66903994  0.73777109     1.36900
C393        C  0.52158883  0.59977526  0.77098967     0.77000
O394        O  0.44532156  0.62513304  0.75763995    -0.61500
O395        O  0.46403392  0.62807697  0.70202349    -0.52400
C396        C  0.50152544  0.73254807  0.73378560     0.69600
O397        O  0.01369729  0.72162764  0.76195650    -0.47300
C398        C  0.09396222  0.71490454  0.70393869     0.74300
O399        O  0.52547470  0.63213818  0.78647481    -0.59100
O400        O  0.05738271  0.69331348  0.68682349    -0.49200
O401        O  0.01771022  0.60416788  0.73745293    -0.55600
C402        C  0.43364925  0.60958985  0.72751166     0.84500
O403        O  0.49996001  0.71267359  0.70742925    -0.57400
O404        O  0.09157117  0.72515173  0.73465328    -0.60700
In405      In  0.47885263  0.83138244  0.72602063     1.36900
C406        C  0.47373788  0.90083879  0.69250445     0.77000
O407        O  0.40481128  0.77599149  0.72813103    -0.61500
O408        O  0.43896114  0.80772896  0.77600216    -0.52400
C409        C  0.49259334  0.76737381  0.73013465     0.69600
O410        O  0.48270018  0.77949767  0.70089012    -0.47300
C411        C  0.06256266  0.89142771  0.73543382     0.74300
O412        O  0.46945897  0.86819826  0.67715759    -0.59100
O413        O  0.03216346  0.87291279  0.76091428    -0.49200
O414        O  0.47861567  0.89690706  0.72546566    -0.55600
C415        C  0.40239774  0.78617602  0.75886636     0.84500
O416        O  0.49466570  0.78761632  0.75641146    -0.57400
O417        O  0.05091091  0.87591976  0.70529287    -0.60700
In418      In  0.15415577  0.65787480  0.69491684     1.36900
C419        C  0.07131397  0.57576444  0.67579104     0.77000
O420        O  0.20051367  0.64606284  0.67109860    -0.61500
O421        O  0.17547968  0.62599968  0.72731951    -0.52400
C422        C  0.22773327  0.73043022  0.72322283     0.69600
O423        O  0.22460605  0.72873470  0.68953659    -0.47300
C424        C  0.12336041  0.70209322  0.69913993     0.74300
O425        O  0.10391522  0.60910587  0.65430173    -0.59100
O426        O  0.12299126  0.67730804  0.72533765    -0.49200
O427        O  0.08112287  0.58431380  0.70784952    -0.55600
C428        C  0.19903198  0.62731012  0.70181345     0.84500
O429        O  0.19314757  0.69501983  0.74191902    -0.57400
O430        O  0.14103599  0.70505612  0.66896527    -0.60700
In431      In  0.16821592  0.51866639  0.73985925     1.36900
C432        C  0.10061535  0.52242933  0.77212472     0.77000
O433        O  0.22285052  0.59265347  0.73872502    -0.61500
O434        O  0.18904874  0.56188654  0.69033288    -0.52400
C435        C  0.23197580  0.50570299  0.73108211     0.69600
O436        O  0.22362010  0.51342476  0.76133620    -0.47300
C437        C  0.10525357  0.93436658  0.73875950     0.74300
O438        O  0.13402700  0.52570457  0.78803168    -0.59100
O439        O  0.12135144  0.96554998  0.71275503    -0.49200
O440        O  0.10071670  0.01754592  0.74486618    -0.55600
C441        C  0.21138623  0.59714172  0.70766891     0.84500
O442        O  0.20794367  0.50500092  0.70627200    -0.57400
O443        O  0.12336790  0.94512623  0.76867797    -0.60700
C444        C  0.47977016  0.48612071  0.61367264     0.85900
C445        C  0.43847022  0.48240167  0.63056731    -0.54400
C446        C  0.43715614  0.48144731  0.66664579     0.08800
C447        C  0.47999080  0.48427179  0.68264031     0.19700
C448        C  0.02331421  0.53001190  0.62661482    -0.55100
C449        C  0.02638986  0.53145562  0.66245819     0.08900
C450        C  0.47375710  0.94328729  0.63636408    -0.54600
C451        C  0.47435529  0.94063926  0.67246719     0.09500
H452        H  0.41243417  0.48196369  0.61555460     0.14000
H453        H  0.47782893  0.48128078  0.71121632    -0.00300
H454        H  0.05060006  0.55849041  0.60817032     0.14300
H455        H  0.47223942  0.91802659  0.62131386     0.14100
C456        C  0.51672490  0.01494380  0.84974416     0.85900
C457        C  0.52266691  0.55795069  0.82694907    -0.54400
C458        C  0.52152877  0.56025010  0.79089705     0.08800
C459        C  0.51566174  0.01631946  0.78082803     0.19700
C460        C  0.47293468  0.97092979  0.83640890    -0.55100
C461        C  0.46987177  0.96951821  0.80056246     0.08900
C462        C  0.06111553  0.52021091  0.82756140    -0.54600
C463        C  0.06187704  0.52111343  0.79143633     0.09500
H464        H  0.52437825  0.58334432  0.84196175     0.14000
H465        H  0.51738142  0.01905522  0.75226556    -0.00300
H466        H  0.44564737  0.94243315  0.85484217     0.14300
H467        H  0.08743174  0.52083352  0.84231129     0.14100
In468      In  0.34214113  0.84311605  0.76804312     1.36900
C469        C  0.42496402  0.92521432  0.78720834     0.77000
O470        O  0.35530958  0.79593556  0.79390601    -0.61500
O471        O  0.37331768  0.82375533  0.73754649    -0.52400
C472        C  0.26855036  0.77056072  0.73974831     0.69600
O473        O  0.27169723  0.77224609  0.77343477    -0.47300
C474        C  0.29725807  0.87367613  0.76119168     0.74300
O475        O  0.39237346  0.89183611  0.80868407    -0.59100
O476        O  0.32080839  0.87500759  0.73567276    -0.49200
O477        O  0.41515774  0.91670685  0.75514300    -0.55600
C478        C  0.37297599  0.79894803  0.76371162     0.84500
O479        O  0.30311980  0.80598173  0.72104846    -0.57400
O480        O  0.29578084  0.85490217  0.79189524    -0.60700
C481        C  0.07771452  0.51718343  0.96712275    -0.18500
C482        C  0.07063942  0.51113567  0.00407470    -0.20600
C483        C  0.02984453  0.50122095  0.51967511     0.20000
C484        C  0.49717219  0.49907272  0.99811479    -0.03500
C485        C  0.50428902  0.50516119  0.96076836    -0.06600
C486        C  0.04412327  0.51344604  0.94503025     0.20300
C487        C  0.46636901  0.99966808  0.94337233     0.17700
C488        C  0.42563948  0.98991940  0.95894411    -0.18100
C489        C  0.42226577  0.48494534  0.49148395    -0.20300
C490        C  0.45596745  0.48889212  0.51354652     0.20000
C491        C  0.44931302  0.48347263  0.55066557    -0.33300
C492        C  0.48349431  0.48828374  0.57302400     0.00600
C493        C  0.01891464  0.99409716  0.56101089    -0.24700
C494        C  0.05068806  0.51874356  0.90787141    -0.29200
C495        C  0.51341082  0.01317145  0.89036358     0.06300
C496        C  0.47346949  0.00524471  0.90635482    -0.27900
H497        H  0.10944950  0.52463951  0.95581936     0.11000
H498        H  0.09711232  0.51415506  0.52051156     0.12200
H499        H  0.39915739  0.98685534  0.94252672     0.11200
H500        H  0.39041796  0.47724019  0.50279356     0.10500
H501        H  0.41728689  0.47547126  0.56141642     0.15900
H502        H  0.04530910  0.99714537  0.57757950     0.11800
H503        H  0.08245733  0.52625751  0.89700276     0.14600
H504        H  0.44713837  0.00222383  0.88972358     0.14400
In505      In  0.82901904  0.98345605  0.22331020     1.36900
C506        C  0.89643028  0.97942881  0.19085830     0.77000
O507        O  0.86984899  0.05439393  0.20054518    -0.61500
O508        O  0.87368780  0.03557849  0.25646292    -0.52400
C509        C  0.76453484  0.99559120  0.23194181     0.69600
O510        O  0.77615478  0.49086979  0.19465070    -0.47300
C511        C  0.78865124  0.40703429  0.24850188     0.74300
O512        O  0.86302244  0.97628958  0.17506298    -0.59100
O513        O  0.81004336  0.44207033  0.26609042    -0.49200
O514        O  0.89648564  0.48446168  0.21817104    -0.55600
C515        C  0.88887382  0.06612226  0.23006169     0.84500
O516        O  0.78844813  0.99626893  0.25685562    -0.57400
O517        O  0.77773757  0.41152143  0.21722709    -0.60700
In518      In  0.01518139  0.16803855  0.24012133     1.36900
C519        C  0.01994884  0.09864505  0.27424109     0.77000
O520        O  0.94514501  0.12615602  0.26169769    -0.61500
O521        O  0.96134282  0.12612886  0.20605261    -0.52400
C522        C  0.00318222  0.23330141  0.23342303     0.69600
O523        O  0.51028841  0.22059972  0.26437726    -0.47300
C524        C  0.59043440  0.21175428  0.20938039     0.74300
O525        O  0.02429213  0.13148678  0.28933644    -0.59100
O526        O  0.55423843  0.19047877  0.19178301    -0.49200
O527        O  0.51407315  0.10189791  0.24184346    -0.55600
C528        C  0.93198904  0.10918081  0.23213686     0.84500
O529        O  0.00023889  0.21145375  0.20797454    -0.57400
O530        O  0.58761667  0.22184132  0.24006539    -0.60700
In531      In  0.98263014  0.33370871  0.22180278     1.36900
C532        C  0.97729053  0.40290761  0.18812400     0.77000
O533        O  0.90861842  0.27914031  0.22284639    -0.61500
O534        O  0.94197360  0.31047092  0.27114181    -0.52400
C535        C  0.99544839  0.26898921  0.22831279     0.69600
O536        O  0.98600417  0.28046327  0.19851341    -0.47300
C537        C  0.56437466  0.39195539  0.23072708     0.74300
O538        O  0.97336976  0.37039514  0.17282760    -0.59100
O539        O  0.53500820  0.37495806  0.25680744    -0.49200
O540        O  0.98214702  0.39909919  0.22111682    -0.55600
C541        C  0.90578362  0.28920018  0.25353806     0.84500
O542        O  0.99785182  0.29044496  0.25385923    -0.57400
O543        O  0.55124449  0.37501395  0.20115182    -0.60700
In544      In  0.65148612  0.15574703  0.19936532     1.36900
C545        C  0.56836372  0.07379389  0.18051306     0.77000
O546        O  0.69685748  0.14205056  0.17674929    -0.61500
O547        O  0.67226414  0.12409647  0.23302641    -0.52400
C548        C  0.72707285  0.22994894  0.22415017     0.69600
O549        O  0.72199807  0.22606258  0.19075280    -0.47300
C550        C  0.62045796  0.19973175  0.20444773     0.74300
O551        O  0.60094188  0.10704088  0.15893216    -0.59100
O552        O  0.62133353  0.17580270  0.23069405    -0.49200
O553        O  0.57836473  0.08233763  0.21255010    -0.55600
C554        C  0.69544869  0.12422666  0.20784619     0.84500
O555        O  0.69333575  0.19591150  0.24432092    -0.57400
O556        O  0.63721869  0.20215827  0.17402388    -0.60700
In557      In  0.66486448  0.01548778  0.24629068     1.36900
C558        C  0.59723531  0.01981807  0.27765951     0.77000
O559        O  0.71854569  0.08951854  0.24573222    -0.61500
O560        O  0.68617531  0.05887819  0.19690864    -0.52400
C561        C  0.72921086  0.00304204  0.23814703     0.69600
O562        O  0.72018200  0.01025169  0.26836193    -0.47300
C563        C  0.60747229  0.43501974  0.23283812     0.74300
O564        O  0.63015848  0.02256380  0.29397112    -0.59100
O565        O  0.62266270  0.46561022  0.20646905    -0.49200
O566        O  0.60181237  0.51817914  0.23930365    -0.55600
C567        C  0.70759317  0.09395045  0.21445895     0.84500
O568        O  0.70554990  0.00256921  0.21312806    -0.57400
O569        O  0.62647185  0.44669633  0.26236753    -0.60700
C570        C  0.97596227  0.98428267  0.11771502     0.85900
C571        C  0.93515652  0.98081471  0.13529192    -0.54400
C572        C  0.93483954  0.98028208  0.17140854     0.08800
C573        C  0.97810923  0.98309450  0.18657587     0.19700
C574        C  0.51998096  0.02836985  0.13144918    -0.55100
C575        C  0.52323350  0.02959775  0.16727229     0.08900
C576        C  0.97697648  0.44483211  0.13185434    -0.54600
C577        C  0.97755336  0.44244064  0.16794937     0.09500
H578        H  0.90875441  0.98015560  0.12063503     0.14000
H579        H  0.97701933  0.98052595  0.21512191    -0.00300
H580        H  0.54719642  0.05694772  0.11301868     0.14300
H581        H  0.97555604  0.41950030  0.11697171     0.14100
C582        C  0.01997782  0.51635655  0.34496405     0.85900
C583        C  0.01911952  0.05618630  0.33075876    -0.54400
C584        C  0.01909068  0.05885453  0.29461719     0.08800
C585        C  0.01870503  0.51820027  0.27603386     0.19700
C586        C  0.97618375  0.47246547  0.33157322    -0.55100
C587        C  0.97294901  0.47129220  0.29574581     0.08900
C588        C  0.55780155  0.01854008  0.33259974    -0.54600
C589        C  0.55865677  0.01913481  0.29652624     0.09500
H590        H  0.02033470  0.08141302  0.34563051     0.14000
H591        H  0.02025536  0.52109947  0.24747292    -0.00300
H592        H  0.94896298  0.44386061  0.34998501     0.14300
H593        H  0.58397263  0.01907845  0.34749715     0.14100
In594      In  0.84471111  0.34518558  0.26358232     1.36900
C595        C  0.92782513  0.42711594  0.28247675     0.77000
O596        O  0.85898090  0.29876495  0.28890359    -0.61500
O597        O  0.87487357  0.32514901  0.23223974    -0.52400
C598        C  0.76912118  0.27098619  0.23879911     0.69600
O599        O  0.77419729  0.27487228  0.27219645    -0.47300
C600        C  0.80076910  0.37673315  0.25510001     0.74300
O601        O  0.89523560  0.39384995  0.30404078    -0.59100
O602        O  0.82395328  0.37686280  0.22991948    -0.49200
O603        O  0.91784096  0.41860556  0.25043225    -0.55600
C604        C  0.87574967  0.30121001  0.25847783     0.84500
O605        O  0.80285776  0.30502303  0.21862797    -0.57400
O606        O  0.79934276  0.35888804  0.28619243    -0.60700
C607        C  0.57495370  0.01705505  0.47186408    -0.18500
C608        C  0.56782073  0.01087835  0.50880919    -0.20600
C609        C  0.52687233  0.00065472  0.02441059     0.20000
C610        C  0.99203787  0.99602279  0.50222293    -0.03500
C611        C  0.99916152  0.00212578  0.46487611    -0.06600
C612        C  0.54127767  0.01314374  0.44977984     0.20300
C613        C  0.96923939  0.50004999  0.43864854     0.17700
C614        C  0.92839600  0.49005378  0.45422040    -0.18100
C615        C  0.91712178  0.98182781  0.99563373    -0.20300
C616        C  0.95092147  0.98599225  0.01771967     0.20000
C617        C  0.94458797  0.98106531  0.05490290    -0.33300
C618        C  0.97894911  0.98598093  0.07710536     0.00600
C619        C  0.52382261  0.49694719  0.05701502    -0.24700
C620        C  0.54772472  0.01817765  0.41263810    -0.29200
C621        C  0.01654127  0.51415145  0.38561200     0.06300
C622        C  0.97652170  0.50604371  0.40163925    -0.27900
H623        H  0.60672661  0.02459126  0.46055964     0.11000
H624        H  0.59415860  0.01361929  0.02525904     0.12200
H625        H  0.90189553  0.48696020  0.43780871     0.11200
H626        H  0.88529134  0.97414573  0.00695605     0.10500
H627        H  0.91281405  0.97346233  0.06587916     0.15900
H628        H  0.55017318  0.50004888  0.07366773     0.11800
H629        H  0.57957044  0.02582959  0.40181193     0.14600
H630        H  0.95026421  0.50321437  0.38502672     0.14400
In631      In  0.82898978  0.98341049  0.72332980     1.36900
C632        C  0.89642516  0.97943896  0.69085371     0.77000
O633        O  0.86983894  0.05438284  0.70065555    -0.61500
O634        O  0.87362891  0.03545520  0.75655441    -0.52400
C635        C  0.76451958  0.99557146  0.73194727     0.69600
O636        O  0.77611783  0.49082884  0.69465107    -0.47300
C637        C  0.78869635  0.40712584  0.74855474     0.74300
O638        O  0.86302585  0.97632017  0.67506169    -0.59100
O639        O  0.81012933  0.44219841  0.76610483    -0.49200
O640        O  0.89650510  0.48449740  0.71816665    -0.55600
C641        C  0.88883064  0.06605090  0.73018826     0.84500
O642        O  0.78836542  0.99615740  0.75687944    -0.57400
O643        O  0.77774529  0.41156431  0.71728263    -0.60700
In644      In  0.01510698  0.16798025  0.74031831     1.36900
C645        C  0.01986802  0.09855023  0.77435368     0.77000
O646        O  0.94505894  0.12604185  0.76188498    -0.61500
O647        O  0.96130137  0.12610743  0.70622799    -0.52400
C648        C  0.00310571  0.23324265  0.73360403     0.69600
O649        O  0.51024651  0.22054863  0.76452699    -0.47300
C650        C  0.59042787  0.21179581  0.70948580     0.74300
O651        O  0.02418422  0.13135290  0.78949168    -0.59100
O652        O  0.55423392  0.19052084  0.69188662    -0.49200
O653        O  0.51408157  0.10190333  0.74191219    -0.55600
C654        C  0.93193149  0.10910903  0.73230631     0.84500
O655        O  0.00018476  0.21140081  0.70815906    -0.57400
O656        O  0.58759967  0.22185807  0.74017810    -0.60700
In657      In  0.98261815  0.33369781  0.72190965     1.36900
C658        C  0.97728681  0.40288490  0.68819094     0.77000
O659        O  0.90860115  0.27915742  0.72295756    -0.61500
O660        O  0.94196879  0.31051265  0.77124421    -0.52400
C661        C  0.99538824  0.26894256  0.72847215     0.69600
O662        O  0.98596237  0.28041244  0.69866166    -0.47300
C663        C  0.56431700  0.39188347  0.73089727     0.74300
O664        O  0.97335581  0.37035481  0.67291427    -0.59100
O665        O  0.53496703  0.37493680  0.75698387    -0.49200
O666        O  0.98215545  0.39910468  0.72118451    -0.55600
C667        C  0.90577699  0.28924210  0.75364199     0.84500
O668        O  0.99779578  0.29041895  0.75400511    -0.57400
O669        O  0.55115773  0.37489926  0.70134009    -0.60700
In670      In  0.65151433  0.15582886  0.69943752     1.36900
C671        C  0.56841179  0.07389165  0.68054149     0.77000
O672        O  0.69690699  0.14215916  0.67682485    -0.61500
O673        O  0.67229093  0.12416731  0.73309689    -0.52400
C674        C  0.72709126  0.23003566  0.72422545     0.69600
O675        O  0.72201660  0.22615185  0.69082785    -0.47300
C676        C  0.62046128  0.19978754  0.70454279     0.74300
O677        O  0.60099928  0.10715930  0.65897737    -0.59100
O678        O  0.62133816  0.17584752  0.73077971    -0.49200
O679        O  0.57839338  0.08240315  0.71258597    -0.55600
C680        C  0.69548983  0.12431810  0.70791644     0.84500
O681        O  0.69335698  0.19599411  0.74439562    -0.57400
O682        O  0.63723307  0.20223916  0.67411640    -0.60700
In683      In  0.66489029  0.01553422  0.74627003     1.36900
C684        C  0.59723671  0.01980873  0.77766256     0.77000
O685        O  0.71855306  0.08956092  0.74578906    -0.61500
O686        O  0.68626192  0.05900638  0.69692413    -0.52400
C687        C  0.72922053  0.00305993  0.73814071     0.69600
O688        O  0.72014499  0.01021016  0.76836320    -0.47300
C689        C  0.60742924  0.43494828  0.73296499     0.74300
O690        O  0.63015074  0.02253311  0.79397109    -0.59100
O691        O  0.62260337  0.46548638  0.70656052    -0.49200
O692        O  0.60178954  0.51814595  0.73930506    -0.55600
C693        C  0.70763860  0.09404193  0.71451299     0.84500
O694        O  0.70562822  0.00268035  0.71310356    -0.57400
O695        O  0.62646216  0.44668594  0.76247799    -0.60700
C696        C  0.97598962  0.98437252  0.61769238     0.85900
C697        C  0.93517520  0.98088509  0.63527530    -0.54400
C698        C  0.93484331  0.98031580  0.67139502     0.08800
C699        C  0.97810628  0.98311420  0.68655866     0.19700
C700        C  0.52005460  0.02853262  0.63144689    -0.55100
C701        C  0.52329182  0.02971234  0.66727381     0.08900
C702        C  0.97695319  0.44475999  0.63190013    -0.54600
C703        C  0.97754420  0.44240327  0.66799362     0.09500
H704        H  0.90877627  0.98023466  0.62062196     0.14000
H705        H  0.97700735  0.98051964  0.71510775    -0.00300
H706        H  0.54727363  0.05713589  0.61303234     0.14300
H707        H  0.97552574  0.41941160  0.61703474     0.14100
C708        C  0.02006507  0.51653501  0.84493346     0.85900
C709        C  0.01902710  0.05602499  0.83082659    -0.54400
C710        C  0.01901274  0.05874039  0.79468527     0.08800
C711        C  0.01876090  0.51828709  0.77600778     0.19700
C712        C  0.97625711  0.47262774  0.83157097    -0.55100
C713        C  0.97300714  0.47140665  0.79574743     0.08900
C714        C  0.55777915  0.01847064  0.83261460    -0.54600
C715        C  0.55864878  0.01910134  0.79653818     0.09500
H716        H  0.02022926  0.08122561  0.84572414     0.14000
H717        H  0.02030312  0.52114873  0.74745012    -0.00300
H718        H  0.94903932  0.44404806  0.84999861     0.14300
H719        H  0.58394841  0.01900186  0.84750778     0.14100
In720      In  0.84473937  0.34526777  0.76365384     1.36900
C721        C  0.92787294  0.42721393  0.78250506     0.77000
O722        O  0.85899541  0.29884609  0.78899514    -0.61500
O723        O  0.87487836  0.32519462  0.73232445    -0.52400
C724        C  0.76913959  0.27107312  0.73887417     0.69600
O725        O  0.77421609  0.27496194  0.77227120    -0.47300
C726        C  0.80081038  0.37682501  0.75516910     0.74300
O727        O  0.89529254  0.39396835  0.80408562    -0.59100
O728        O  0.82398030  0.37693399  0.72998890    -0.49200
O729        O  0.91786977  0.41867153  0.75046794    -0.55600
C730        C  0.87575316  0.30126643  0.75857181     0.84500
O731        O  0.80287882  0.30510584  0.71870230    -0.57400
O732        O  0.79939223  0.35899702  0.78626685    -0.60700
C733        C  0.57483397  0.01678180  0.97189826    -0.18500
C734        C  0.56768934  0.01058727  0.00884351    -0.20600
C735        C  0.52698969  0.00091287  0.52437810     0.20000
C736        C  0.99195895  0.99583411  0.00225181    -0.03500
C737        C  0.99907047  0.00191953  0.96490529    -0.06600
C738        C  0.54118405  0.01292312  0.94981096     0.20300
C739        C  0.96935667  0.50030743  0.93861665     0.17700
C740        C  0.92852733  0.49034487  0.95418656    -0.18100
C741        C  0.91722980  0.98207742  0.49559811    -0.20300
C742        C  0.95100782  0.98620001  0.51768787     0.20000
C743        C  0.94465857  0.98124575  0.55487212    -0.33300
C744        C  0.97899611  0.98611320  0.57707875     0.00600
C745        C  0.52370562  0.49670026  0.55704925    -0.24700
C746        C  0.54764696  0.01798598  0.91266812    -0.29200
C747        C  0.01664493  0.51437068  0.88558127     0.06300
C748        C  0.97664439  0.50630486  0.90160637    -0.27900
H749        H  0.60659658  0.02429453  0.96059584     0.11000
H750        H  0.59430719  0.01394584  0.52522268     0.12200
H751        H  0.90204515  0.48728799  0.93777324     0.11200
H752        H  0.88540557  0.97441172  0.50691768     0.10500
H753        H  0.91289193  0.97366059  0.56584570     0.15900
H754        H  0.55004629  0.49978530  0.57370456     0.11800
H755        H  0.57948127  0.02561134  0.90184499     0.14600
H756        H  0.95040005  0.50349927  0.88499173     0.14400
In757      In  0.83140834  0.48554456  0.21674687     1.36900
C758        C  0.89904598  0.48124779  0.18535342     0.77000
O759        O  0.87347616  0.55684244  0.19459789    -0.61500
O760        O  0.87560779  0.53672025  0.25055839    -0.52400
C761        C  0.76707721  0.49801880  0.22487284     0.69600
O762        O  0.77336560  0.98828777  0.20169349    -0.47300
C763        C  0.78624596  0.90478737  0.25499073     0.74300
O764        O  0.86614366  0.47854442  0.16904295    -0.59100
O765        O  0.80856107  0.93982455  0.27258453    -0.49200
O766        O  0.89448813  0.98290144  0.22370822    -0.55600
C767        C  0.89170431  0.56777715  0.22445640     0.84500
O768        O  0.79066807  0.49839766  0.24991073    -0.57400
O769        O  0.77461495  0.90954171  0.22407677    -0.60700
In770      In  0.01745340  0.66967076  0.23702630     1.36900
C771        C  0.02253255  0.60018375  0.27053001     0.77000
O772        O  0.94691540  0.62647556  0.25744330    -0.61500
O773        O  0.96476676  0.62857323  0.20179483    -0.52400
C774        C  0.00369641  0.73366988  0.23290880     0.69600
O775        O  0.51115202  0.72020167  0.26322102    -0.47300
C776        C  0.59291198  0.71462061  0.20585909     0.74300
O777        O  0.02682692  0.63282870  0.28588237    -0.59100
O778        O  0.55672757  0.69365983  0.18826834    -0.49200
O779        O  0.51667195  0.60378118  0.23811924    -0.55600
C780        C  0.93469263  0.61060679  0.22746098     0.84500
O781        O  0.00164760  0.71344034  0.20663099    -0.57400
O782        O  0.59000638  0.72432113  0.23666504    -0.60700
In783      In  0.98021304  0.83195658  0.22525887     1.36900
C784        C  0.97464326  0.90122571  0.19203455     0.77000
O785        O  0.90619928  0.77669219  0.22647520    -0.61500
O786        O  0.93947727  0.80737578  0.27486708    -0.52400
C787        C  0.99473509  0.76847489  0.22925554     0.69600
O788        O  0.98506179  0.78075619  0.19997468    -0.47300
C789        C  0.56155876  0.89038305  0.23575184     0.74300
O790        O  0.97075473  0.86886019  0.17655122    -0.59100
O791        O  0.53150463  0.87246951  0.26142755    -0.49200
O792        O  0.97956791  0.89722557  0.22497863    -0.55600
C793        C  0.90329565  0.78641594  0.25727262     0.84500
O794        O  0.99627764  0.78833983  0.25561076    -0.57400
O795        O  0.54930309  0.87445995  0.20579087    -0.60700
In796      In  0.65323923  0.65764136  0.19618909     1.36900
C797        C  0.57064148  0.57567312  0.17675089     0.77000
O798        O  0.69920478  0.64561043  0.17201366    -0.61500
O799        O  0.67472882  0.62559285  0.22835191    -0.52400
C800        C  0.72748845  0.73040507  0.22355432     0.69600
O801        O  0.72369128  0.72828663  0.18993622    -0.47300
C802        C  0.62239042  0.70187016  0.20100141     0.74300
O803        O  0.60310948  0.60937856  0.15539024    -0.59100
O804        O  0.62228293  0.67713375  0.22711444    -0.49200
O805        O  0.58039913  0.58385164  0.20887402    -0.55600
C806        C  0.69789756  0.62673636  0.20261262     0.84500
O807        O  0.69320128  0.69528556  0.24267538    -0.57400
O808        O  0.63980578  0.70476253  0.17073563    -0.60700
In809      In  0.66730560  0.51766379  0.23968553     1.36900
C810        C  0.59985231  0.52161061  0.27215994     0.77000
O811        O  0.72168157  0.59157827  0.23899767    -0.61500
O812        O  0.68782906  0.56137480  0.19044544    -0.52400
C813        C  0.73177742  0.50550626  0.23106602     0.69600
O814        O  0.72289901  0.51274818  0.26132266    -0.47300
C815        C  0.60455957  0.93322177  0.23870447     0.74300
O816        O  0.63326203  0.52474895  0.28795069    -0.59100
O817        O  0.62062777  0.96421980  0.21256230    -0.49200
O818        O  0.59977594  0.01655486  0.24484928    -0.55600
C819        C  0.71008704  0.59637469  0.20807962     0.84500
O820        O  0.70793242  0.50492186  0.20613359    -0.57400
O821        O  0.62283079  0.94422927  0.26854347    -0.60700
C822        C  0.97954189  0.48607558  0.11327966     0.85900
C823        C  0.93849555  0.48256644  0.13040447    -0.54400
C824        C  0.93762236  0.48193500  0.16648074     0.08800
C825        C  0.98059661  0.48469737  0.18219590     0.19700
C826        C  0.52337908  0.53019581  0.12728934    -0.55100
C827        C  0.52599287  0.53135348  0.16317086     0.08900
C828        C  0.97358136  0.94305701  0.13607217    -0.54600
C829        C  0.97471415  0.94075602  0.17212440     0.09500
H830        H  0.91233901  0.48205483  0.11550765     0.14000
H831        H  0.97887079  0.48195823  0.21075798    -0.00300
H832        H  0.55081937  0.55884455  0.10903025     0.14300
H833        H  0.97186547  0.91766027  0.12106057     0.14100
C834        C  0.01646510  0.01487122  0.34934855     0.85900
C835        C  0.02248782  0.55771128  0.32666488    -0.54400
C836        C  0.02189677  0.56036844  0.29056155     0.08800
C837        C  0.01625396  0.01673281  0.28038052     0.19700
C838        C  0.97293295  0.97095783  0.33572382    -0.55100
C839        C  0.97030678  0.96975969  0.29984594     0.08900
C840        C  0.56109315  0.52014389  0.32774078    -0.54600
C841        C  0.56142249  0.52071355  0.29162103     0.09500
H842        H  0.02400794  0.58297059  0.34171811     0.14000
H843        H  0.01841894  0.01972871  0.25180443    -0.00300
H844        H  0.94549385  0.94233059  0.35399582     0.14300
H845        H  0.58750358  0.52081164  0.34239085     0.14100
In846      In  0.84301138  0.84344696  0.26690201     1.36900
C847        C  0.92564280  0.92542605  0.28629200     0.77000
O848        O  0.85642113  0.79631691  0.29237779    -0.61500
O849        O  0.87392950  0.82389834  0.23599007    -0.52400
C850        C  0.76873890  0.77069351  0.23954585     0.69600
O851        O  0.77253782  0.77281754  0.27316347    -0.47300
C852        C  0.79839984  0.87439961  0.26047521     0.74300
O853        O  0.89318232  0.89174312  0.30767024    -0.59100
O854        O  0.82153784  0.87549998  0.23473478    -0.49200
O855        O  0.91586167  0.91721547  0.25417642    -0.55600
C856        C  0.87382278  0.79917743  0.26211518     0.84500
O857        O  0.80303118  0.80580426  0.22042278    -0.57400
O858        O  0.79709261  0.85553864  0.29108067    -0.60700
C859        C  0.57898464  0.51884652  0.46742853    -0.18500
C860        C  0.57190738  0.51277000  0.50440126    -0.20600
C861        C  0.53110897  0.50286795  0.01997070     0.20000
C862        C  0.99594910  0.49752856  0.49782931    -0.03500
C863        C  0.00306784  0.50358811  0.46048385    -0.06600
C864        C  0.54522654  0.51476248  0.44533580     0.20300
C865        C  0.96522597  0.99833211  0.44301944     0.17700
C866        C  0.92430217  0.98815167  0.45862520    -0.18100
C867        C  0.92138810  0.48415356  0.99113205    -0.20300
C868        C  0.95505604  0.48804676  0.01321647     0.20000
C869        C  0.94860018  0.48299218  0.05035929    -0.33300
C870        C  0.98285439  0.48784259  0.07266080     0.00600
C871        C  0.51958165  0.99465888  0.06142071    -0.24700
C872        C  0.55158244  0.51972427  0.40815156    -0.29200
C873        C  0.01273979  0.01270477  0.38999686     0.06300
C874        C  0.97251554  0.00425886  0.40597417    -0.27900
H875        H  0.61079782  0.52648581  0.45611151     0.11000
H876        H  0.59861786  0.51631755  0.02076979     0.12200
H877        H  0.89771130  0.98486983  0.44222053     0.11200
H878        H  0.88961605  0.47661853  0.00243693     0.10500
H879        H  0.91675467  0.47533975  0.06118547     0.15900
H880        H  0.54581556  0.99744535  0.07803763     0.11800
H881        H  0.58333668  0.52727906  0.39718114     0.14600
H882        H  0.94616383  0.00115283  0.38932149     0.14400
In883      In  0.83143417  0.48559148  0.71672542     1.36900
C884        C  0.89904748  0.48123915  0.68535581     0.77000
O885        O  0.87348296  0.55685594  0.69448461    -0.61500
O886        O  0.87566408  0.53684740  0.75046526    -0.52400
C887        C  0.76708683  0.49803723  0.72486556     0.69600
O888        O  0.77339653  0.98832691  0.70169126    -0.47300
C889        C  0.78619977  0.90469844  0.75493682     0.74300
O890        O  0.86613634  0.47851485  0.66904206    -0.59100
O891        O  0.80847548  0.93969995  0.77256874    -0.49200
O892        O  0.89446564  0.98286813  0.72371033    -0.55600
C893        C  0.89174486  0.56785233  0.72432748     0.84500
O894        O  0.79074626  0.49850918  0.74988527    -0.57400
O895        O  0.77460373  0.90949968  0.72402083    -0.60700
In896      In  0.01752866  0.66973558  0.73682386     1.36900
C897        C  0.02261280  0.60028354  0.77041438     0.77000
O898        O  0.94700165  0.62659701  0.75725308    -0.61500
O899        O  0.96480700  0.62859863  0.70161508    -0.52400
C900        C  0.00377490  0.73373581  0.73272051     0.69600
O901        O  0.51119253  0.72025586  0.76306434    -0.47300
C902        C  0.59291442  0.71457867  0.70574412     0.74300
O903        O  0.02693667  0.63296992  0.78572284    -0.59100
O904        O  0.55672720  0.69361202  0.68815619    -0.49200
O905        O  0.51665813  0.60377405  0.73804668    -0.55600
C906        C  0.93474910  0.61068368  0.72728840     0.84500
O907        O  0.00170127  0.71349781  0.70644013    -0.57400
O908        O  0.59001933  0.72430718  0.73654165    -0.60700
In909      In  0.98022122  0.83196728  0.72514502     1.36900
C910        C  0.97464320  0.90124903  0.69196377     0.77000
O911        O  0.90621237  0.77667778  0.72635339    -0.61500
O912        O  0.93947684  0.80732821  0.77475624    -0.52400
C913        C  0.99479572  0.76852664  0.72908856     0.69600
O914        O  0.98510222  0.78081009  0.69981958    -0.47300
C915        C  0.56161512  0.89046006  0.73557862     0.74300
O916        O  0.97076682  0.86890324  0.67645922    -0.59100
O917        O  0.53154448  0.87249474  0.76124691    -0.49200
O918        O  0.97955418  0.89721838  0.72490693    -0.55600
C919        C  0.90329809  0.78637390  0.75715903     0.84500
O920        O  0.99633401  0.78837035  0.75545654    -0.57400
O921        O  0.54938975  0.87458166  0.70559988    -0.60700
In922      In  0.65321198  0.65756479  0.69611465     1.36900
C923        C  0.57059245  0.57557918  0.67672258     0.77000
O924        O  0.69915574  0.64550600  0.67193582    -0.61500
O925        O  0.67470319  0.62552779  0.72828005    -0.52400
C926        C  0.72747031  0.73032518  0.72347672     0.69600
O927        O  0.72367368  0.72820337  0.68985889    -0.47300
C928        C  0.62238624  0.70181797  0.70089918     0.74300
O929        O  0.60305179  0.60926288  0.65534436    -0.59100
O930        O  0.62227939  0.67709627  0.72702374    -0.49200
O931        O  0.58037020  0.58379133  0.70883817    -0.55600
C932        C  0.69785682  0.62664934  0.70254075     0.84500
O933        O  0.69317979  0.69521009  0.74259833    -0.57400
O934        O  0.63979160  0.70468428  0.67063656    -0.60700
In935      In  0.66727619  0.51761858  0.73970434     1.36900
C936        C  0.59984714  0.52162129  0.77215459     0.77000
O937        O  0.72167052  0.59153656  0.73894028    -0.61500
O938        O  0.68774259  0.56125009  0.69042867    -0.52400
C939        C  0.73176212  0.50548717  0.73107051     0.69600
O940        O  0.72293005  0.51278807  0.76131946    -0.47300
C941        C  0.60459999  0.93329687  0.73857529     0.74300
O942        O  0.63326579  0.52478066  0.78794846    -0.59100
O943        O  0.62068437  0.96434732  0.71246927    -0.49200
O944        O  0.59979564  0.01659025  0.74484552    -0.55600
C945        C  0.71004061  0.59628593  0.70802442     0.84500
O946        O  0.70784937  0.50481065  0.70615647    -0.57400
O947        O  0.62283710  0.94424197  0.76843017    -0.60700
C948        C  0.97951182  0.48598758  0.61330075     0.85900
C949        C  0.93847366  0.48249783  0.63041884    -0.54400
C950        C  0.93761454  0.48190205  0.66649231     0.08800
C951        C  0.98059513  0.48467807  0.68221151     0.19700
C952        C  0.52330303  0.53003854  0.62729260    -0.55100
C953        C  0.52593214  0.53124288  0.66317004     0.08900
C954        C  0.97360143  0.94313098  0.63602434    -0.54600
C955        C  0.97471917  0.94079425  0.67207793     0.09500
H956        H  0.91231618  0.48197960  0.61551777     0.14000
H957        H  0.97887830  0.48196522  0.71077044    -0.00300
H958        H  0.55074000  0.55866356  0.60901797     0.14300
H959        H  0.97189208  0.91775090  0.62099530     0.14100
C960        C  0.01637719  0.01469818  0.84937891     0.85900
C961        C  0.02258027  0.55787854  0.82659560    -0.54400
C962        C  0.02197348  0.56048688  0.79049173     0.08800
C963        C  0.01619559  0.01664866  0.78040616     0.19700
C964        C  0.97285745  0.97080130  0.83572685    -0.55100
C965        C  0.97024668  0.96964958  0.79984476     0.08900
C966        C  0.56111222  0.52021522  0.82772357    -0.54600
C967        C  0.56142627  0.52074793  0.79160684     0.09500
H968        H  0.02411484  0.58316498  0.84162194     0.14000
H969        H  0.01836703  0.01968000  0.75182703    -0.00300
H970        H  0.94541594  0.94215119  0.85398297     0.14300
H971        H  0.58752554  0.52089208  0.84237667     0.14100
In972      In  0.84298407  0.84337004  0.76682816     1.36900
C973        C  0.92559421  0.92533202  0.78626375     0.77000
O974        O  0.85640661  0.79623827  0.79227970    -0.61500
O975        O  0.87392563  0.82386002  0.73590026    -0.52400
C976        C  0.76872075  0.77061354  0.73946832     0.69600
O977        O  0.77251992  0.77273406  0.77308622    -0.47300
C978        C  0.79835918  0.87431230  0.76040435     0.74300
O979        O  0.89312511  0.89162756  0.80762463    -0.59100
O980        O  0.82151230  0.87543481  0.73466379    -0.49200
O981        O  0.91583271  0.91715476  0.75414071    -0.55600
C982        C  0.87381828  0.79912465  0.76201398     0.84500
O983        O  0.80300993  0.80572871  0.72034604    -0.57400
O984        O  0.79704366  0.85543378  0.79100381    -0.60700
C985        C  0.57909280  0.51909623  0.96739247    -0.18500
C986        C  0.57202728  0.51303653  0.00436506    -0.20600
C987        C  0.53099798  0.50262457  0.52000415     0.20000
C988        C  0.99602972  0.49771970  0.99780102    -0.03500
C989        C  0.00316075  0.50379857  0.96045507    -0.06600
C990        C  0.54531310  0.51497063  0.94530347     0.20300
C991        C  0.96511528  0.99808936  0.94305240     0.17700
C992        C  0.92418237  0.98788529  0.95866092    -0.18100
C993        C  0.92126833  0.48388011  0.49116582    -0.20300
C994        C  0.95496314  0.48782685  0.51324700     0.20000
C995        C  0.94852295  0.48280105  0.55038881    -0.33300
C996        C  0.98280599  0.48771168  0.57268622     0.00600
C997        C  0.51970448  0.99492076  0.56138738    -0.24700
C998        C  0.55165320  0.51990523  0.90812023    -0.29200
C999        C  0.01263749  0.01249191  0.89002759     0.06300
C1000       C  0.97239893  0.00401262  0.90600791    -0.27900
H1001       H  0.61091186  0.52675086  0.95607262     0.11000
H1002       H  0.59848341  0.51602321  0.52080806     0.12200
H1003       H  0.89757715  0.98457586  0.94225846     0.11200
H1004       H  0.88948638  0.47632076  0.50247289     0.10500
H1005       H  0.91666616  0.47512084  0.56121792     0.15900
H1006       H  0.54595131  0.99773134  0.57800196     0.11800
H1007       H  0.58341439  0.52747728  0.89714703     0.14600
H1008       H  0.94603681  0.00088883  0.88935781     0.14400
loop_ 
_geom_bond_atom_site_label_1 
_geom_bond_atom_site_label_2 
_geom_bond_distance 
_geom_bond_site_symmetry_2 
_ccdc_geom_bond_type 
In1           O3   2.132   1_565  S
In1           O4   2.096   1_565  S
In1          O12   2.208       .  S
In1           O8   2.323       .  S
In1         O258   2.243       .  S
In1         O261   2.150       .  S
In1         O262   2.356       .  S
In1         O265   2.152       .  S
C2            O8   1.280       .  A
C2          O262   1.268       .  A
C2           C68   1.550       .  S
O3           C11   1.270       .  A
O4           C11   1.267       .  A
C5           O12   1.260       .  A
C5          O258   1.281       .  A
C5           C57   1.466   1_565  S
O6         In253   2.247       .  S
O6          C257   1.282       .  A
C7            O9   1.261       .  A
C7           O13   1.271       .  A
C7           C96   1.397       .  S
O9         In253   2.147       .  S
O10        In253   2.353       .  S
O10         C254   1.268       .  A
C11          C24   1.390       .  S
O13        In253   2.152       .  S
In14         O16   2.126       .  S
In14         O17   2.110       .  S
In14         O25   2.205       .  S
In14         O21   2.319       .  S
In14        O523   2.241       .  S
In14        O526   2.154       .  S
In14        O527   2.357       .  S
In14        O530   2.151       .  S
C15          O21   1.279       .  A
C15         O527   1.267       .  A
C15          C80   1.548       .  S
O16          C24   1.269       .  A
O17          C24   1.266       .  A
C18          O25   1.259       .  A
C18         O523   1.280       .  A
C18          C31   1.463       .  S
O19        In518   2.239       .  S
O19         C522   1.280       .  A
C20          O22   1.261       .  A
C20          O26   1.270       .  A
C20          C46   1.397       .  S
O22        In518   2.156       .  S
O23        In518   2.356       .  S
O23         C519   1.267       .  A
O26        In518   2.151       .  S
In27         O29   2.151       .  S
In27         O30   2.156       .  S
In27         O38   2.205       .  S
In27         O32   2.239       .  S
In27         O34   2.320       .  S
In27         O36   2.356       .  S
In27        O539   2.110       .  S
In27        O543   2.129       .  S
C28          O34   1.279       .  A
C28          O36   1.267       .  A
C28          C73   1.548       .  S
O29          C37   1.270       .  A
O30          C37   1.261       .  A
C31          O38   1.259       .  A
C31          O32   1.280       .  A
C33          O35   1.266       .  A
C33          O39   1.269       .  A
C33          C59   1.390       .  S
O35        In531   2.110   1_455  S
C37         C100   1.397       .  S
O39        In531   2.126   1_455  S
In40         O42   2.166       .  S
In40         O43   2.050       .  S
In40         O51   2.239       .  S
In40         O45   2.258       .  S
In40         O47   2.302       .  S
In40         O48   2.043       .  S
In40         O49   2.361       .  S
In40         O52   2.169       .  S
C41          O47   1.279       .  A
C41          O49   1.272       .  A
C41          C71   1.557       .  S
O42          C50   1.278       .  A
O43          C50   1.269       .  A
C44          O51   1.274       .  A
C44          O45   1.284       .  A
C44          C94   1.487       .  S
C46          O48   1.269       .  A
C46          O52   1.278       .  A
C50          C63   1.397       .  S
In53         O55   2.152       .  S
In53         O56   2.147       .  S
In53         O64   2.204       .  S
In53         O58   2.246       .  S
In53         O60   2.319       .  S
In53        O313   2.092   1_545  S
In53        O314   2.353       .  S
In53        O317   2.135   1_545  S
C54          O60   1.281       .  A
C54         O314   1.268       .  A
C54          C85   1.548       .  S
O55          C63   1.271       .  A
O56          C63   1.261       .  A
C57          O64   1.259       .  A
C57          O58   1.282       .  A
C59          O61   1.267       .  A
C59          O65   1.270       .  A
O61        In305   2.096       .  S
O62        In305   2.356       .  S
O62         C306   1.268       .  A
O65        In305   2.132       .  S
C66          C67   1.545       .  S
C66         C324   1.535       .  S
C66         C574   1.535   1_565  S
C66         C114   1.538       .  S
C67          H74   1.081       .  S
C67          C68   1.366       .  D
C68          C69   1.595       .  S
C69         C325   1.595       .  S
C69         C575   1.605   1_565  S
C69          H75   1.077       .  S
C70         C570   1.536   1_445  S
C70          H76   1.087       .  S
C70          C71   1.363       .  D
C71         C573   1.604   1_445  S
C72         C318   1.535       .  S
C72          H77   1.086       .  S
C72          C73   1.364       .  D
C73         C321   1.595       .  S
C78          C82   1.536       .  S
C78         C331   1.534       .  S
C78         C840   1.545       .  S
C78         C117   1.537       .  S
C79         C330   1.534       .  S
C79          H86   1.087       .  S
C79          C80   1.363       .  D
C80         C333   1.596       .  S
C81          C83   1.604       .  S
C81         C332   1.596       .  S
C81         C841   1.597       .  S
C81          H87   1.077       .  S
C82          H88   1.087       .  S
C82          C83   1.363       .  D
C83          C91   1.557       .  S
C84         C834   1.545       .  S
C84          H89   1.080       .  S
C84          C85   1.365       .  D
C85         C837   1.593       .  S
In90         O92   2.168       .  S
In90         O93   2.043       .  S
In90        O101   2.239       .  S
In90         O95   2.258       .  S
In90         O97   2.302       .  S
In90         O98   2.050       .  S
In90         O99   2.361       .  S
In90        O102   2.166       .  S
C91          O97   1.279       .  A
C91          O99   1.272       .  A
O92         C100   1.278       .  A
O93         C100   1.269       .  A
C94         O101   1.274       .  A
C94          O95   1.284       .  A
C96          O98   1.269       .  A
C96         O102   1.278       .  A
C103        C104   1.399       .  A
C103        C108   1.404       .  A
C103        H119   1.084       .  S
C104        C231   1.404   1_545  A
C104        H246   1.084       .  S
C105        C230   1.404   1_565  A
C105        C367   1.402       .  A
C105        C736   1.408   1_455  A
C106        C107   1.415   1_565  A
C106        C735   1.408   1_565  A
C106        C238   1.411       .  A
C107        C361   1.408   1_545  A
C107        C612   1.411       .  A
C108        C116   1.406       .  A
C108        C611   1.410   1_455  A
C109        C118   1.402       .  A
C109        C110   1.404       .  A
C109        C359   1.408       .  A
C110        C489   1.399       .  A
C110        H121   1.084       .  S
C111        C112   1.404   1_556  A
C111        C488   1.400       .  A
C111        H122   1.084   1_556  S
C112        C113   1.407       .  A
C112        C232   1.411       .  A
C113        C114   1.414       .  A
C113        H123   1.077       .  S
C114        C871   1.413       .  A
C115        C357   1.403       .  A
C115        C870   1.413   1_455  A
C115        H124   1.084       .  S
C116        C873   1.413       .  A
C116        H125   1.077       .  S
C117        C118   1.413       .  A
C117        C872   1.414       .  A
C118        H126   1.085       .  S
H120        C230   1.084       .  S
In127       O129   2.132   1_565  S
In127       O130   2.096   1_565  S
In127       O138   2.208       .  S
In127       O384   2.243       .  S
In127       O134   2.323       .  S
In127       O387   2.150       .  S
In127       O388   2.356       .  S
In127       O391   2.152       .  S
C128        O134   1.280       .  A
C128        O388   1.268       .  A
C128        C194   1.550       .  S
O129        C137   1.270       .  A
O130        C137   1.267       .  A
C131        O138   1.260       .  A
C131        O384   1.281       .  A
C131        C183   1.466   1_565  S
O132       In379   2.246       .  S
O132        C383   1.282       .  A
C133        O135   1.261       .  A
C133        O139   1.271       .  A
C133        C222   1.397       .  S
O135       In379   2.147       .  S
O136       In379   2.353       .  S
O136        C380   1.268       .  A
C137        C150   1.390       .  S
O139       In379   2.152       .  S
In140       O142   2.126       .  S
In140       O143   2.110       .  S
In140       O151   2.205       .  S
In140       O649   2.241       .  S
In140       O147   2.319       .  S
In140       O652   2.154       .  S
In140       O653   2.357       .  S
In140       O656   2.151       .  S
C141        O147   1.279       .  A
C141        O653   1.267       .  A
C141        C206   1.548       .  S
O142        C150   1.269       .  A
O143        C150   1.266       .  A
C144        O151   1.259       .  A
C144        O649   1.280       .  A
C144        C157   1.463       .  S
O145       In644   2.240       .  S
O145        C648   1.280       .  A
C146        O148   1.261       .  A
C146        O152   1.270       .  A
C146        C172   1.397       .  S
O148       In644   2.156       .  S
O149       In644   2.356       .  S
O149        C645   1.267       .  A
O152       In644   2.151       .  S
In153       O155   2.151       .  S
In153       O156   2.156       .  S
In153       O164   2.205       .  S
In153       O158   2.239       .  S
In153       O160   2.320       .  S
In153       O665   2.110       .  S
In153       O162   2.356       .  S
In153       O669   2.129       .  S
C154        O160   1.279       .  A
C154        O162   1.267       .  A
C154        C199   1.548       .  S
O155        C163   1.270       .  A
O156        C163   1.261       .  A
C157        O164   1.259       .  A
C157        O158   1.280       .  A
C159        O161   1.266       .  A
C159        O165   1.269       .  A
C159        C185   1.390       .  S
O161       In657   2.110   1_455  S
C163        C226   1.397       .  S
O165       In657   2.126   1_455  S
In166       O168   2.166       .  S
In166       O169   2.050       .  S
In166       O177   2.239       .  S
In166       O171   2.258       .  S
In166       O173   2.302       .  S
In166       O174   2.043       .  S
In166       O175   2.361       .  S
In166       O178   2.168       .  S
C167        O173   1.279       .  A
C167        O175   1.272       .  A
C167        C197   1.557       .  S
O168        C176   1.278       .  A
O169        C176   1.269       .  A
C170        O177   1.274       .  A
C170        O171   1.284       .  A
C170        C220   1.487       .  S
C172        O174   1.269       .  A
C172        O178   1.278       .  A
C176        C189   1.397       .  S
In179       O181   2.152       .  S
In179       O182   2.147       .  S
In179       O190   2.204       .  S
In179       O184   2.247       .  S
In179       O186   2.319       .  S
In179       O439   2.092   1_545  S
In179       O440   2.353       .  S
In179       O443   2.135   1_545  S
C180        O186   1.281       .  A
C180        O440   1.268       .  A
C180        C211   1.548       .  S
O181        C189   1.271       .  A
O182        C189   1.261       .  A
C183        O190   1.259       .  A
C183        O184   1.282       .  A
C185        O187   1.267       .  A
C185        O191   1.270       .  A
O187       In431   2.096       .  S
O188       In431   2.356       .  S
O188        C432   1.268       .  A
O191       In431   2.132       .  S
C192        C193   1.545       .  S
C192        C450   1.535       .  S
C192        C700   1.535   1_565  S
C192        C240   1.538       .  S
C193        H200   1.081       .  S
C193        C194   1.366       .  D
C194        C195   1.595       .  S
C195        C451   1.595       .  S
C195        C701   1.605   1_565  S
C195        H201   1.077       .  S
C196        C696   1.536   1_445  S
C196        H202   1.087       .  S
C196        C197   1.363       .  D
C197        C699   1.604   1_445  S
C198        C444   1.535       .  S
C198        H203   1.086       .  S
C198        C199   1.364       .  D
C199        C447   1.595       .  S
C204        C457   1.534       .  S
C204        C966   1.545       .  S
C204        C208   1.536       .  S
C204        C243   1.537       .  S
C205        C456   1.534       .  S
C205        H212   1.087       .  S
C205        C206   1.363       .  D
C206        C459   1.596       .  S
C207        C458   1.596       .  S
C207        C967   1.597       .  S
C207        C209   1.604       .  S
C207        H213   1.076       .  S
C208        H214   1.087       .  S
C208        C209   1.363       .  D
C209        C217   1.558       .  S
C210        C960   1.545       .  S
C210        H215   1.081       .  S
C210        C211   1.365       .  D
C211        C963   1.594       .  S
In216       O218   2.169       .  S
In216       O219   2.043       .  S
In216       O227   2.239       .  S
In216       O221   2.258       .  S
In216       O223   2.302       .  S
In216       O224   2.050       .  S
In216       O225   2.361       .  S
In216       O228   2.166       .  S
C217        O223   1.279       .  A
C217        O225   1.272       .  A
O218        C226   1.278       .  A
O219        C226   1.269       .  A
C220        O227   1.274       .  A
C220        O221   1.284       .  A
C222        O224   1.269       .  A
C222        O228   1.278       .  A
C229        C230   1.399   1_556  A
C229        C234   1.404       .  A
C229        H245   1.084       .  S
C231        C493   1.402       .  A
C231        C610   1.408   1_455  A
C232        C609   1.408   1_565  A
C232        C233   1.415   1_564  A
C233        C487   1.408   1_545  A
C233        C738   1.410       .  A
C234        C737   1.410   1_455  A
C234        C242   1.406       .  A
C235        C485   1.408       .  A
C235        C244   1.402       .  A
C235        C236   1.404       .  A
C236        C363   1.399       .  A
C236        H247   1.084       .  S
C237        C362   1.400       .  A
C237        C238   1.404       .  A
C237        H248   1.083       .  S
C238        C239   1.407       .  A
C239        C240   1.413       .  A
C239        H249   1.077       .  S
C240        C997   1.413       .  A
C241        C483   1.403       .  A
C241        C996   1.413   1_455  A
C241        H250   1.084       .  S
C242        C999   1.413       .  A
C242        H251   1.077       .  S
C243        C998   1.414       .  A
C243        C244   1.413       .  A
C244        H252   1.084       .  S
In253       O255   2.135       .  S
In253       O256   2.092       .  S
In253       O264   2.204       .  S
In253       O260   2.319       .  S
C254        O260   1.281       .  A
C254        C320   1.548       .  S
O255        C263   1.271       .  A
O256        C263   1.266       .  A
C257        O264   1.259       .  A
C257        C309   1.466       .  S
C259        O261   1.261       .  A
C259        O265   1.271       .  A
C259        C348   1.397       .  S
C263        C276   1.390       .  S
In266       O268   2.124       .  S
In266       O269   2.114       .  S
In266       O277   2.205       .  S
In266       O775   2.241       .  S
In266       O273   2.319       .  S
In266       O778   2.160       .  S
In266       O779   2.357       .  S
In266       O782   2.155       .  S
C267        O273   1.279       .  A
C267        O779   1.267       .  A
C267        C332   1.547       .  S
O268        C276   1.269       .  A
O269        C276   1.266       .  A
C270        O277   1.258       .  A
C270        O775   1.279       .  A
C270        C283   1.461       .  S
O271       In770   2.240       .  S
O271        C774   1.279       .  A
C272        O274   1.261       .  A
C272        O278   1.269       .  A
C272        C298   1.398       .  S
O274       In770   2.162       .  S
O275       In770   2.356       .  S
O275        C771   1.267       .  A
O278       In770   2.156       .  S
In279       O281   2.156       .  S
In279       O282   2.162       .  S
In279       O290   2.205       .  S
In279       O284   2.239       .  S
In279       O286   2.321       .  S
In279       O791   2.114       .  S
In279       O288   2.356       .  S
In279       O795   2.127       .  S
C280        O286   1.279       .  A
C280        O288   1.267       .  A
C280        C325   1.547       .  S
O281        C289   1.269       .  A
O282        C289   1.261       .  A
C283        O290   1.258       .  A
C283        O284   1.279       .  A
C285        O287   1.266       .  A
C285        O291   1.269       .  A
C285        C311   1.390       .  S
O287       In783   2.114   1_455  S
C289        C352   1.398       .  S
O291       In783   2.124   1_455  S
In292       O294   2.168       .  S
In292       O295   2.047       .  S
In292       O303   2.241       .  S
In292       O297   2.258       .  S
In292       O299   2.302       .  S
In292       O300   2.041       .  S
In292       O301   2.361       .  S
In292       O304   2.172       .  S
C293        O299   1.278       .  A
C293        O301   1.272       .  A
C293        C323   1.558       .  S
O294        C302   1.278       .  A
O295        C302   1.269       .  A
C296        O303   1.275       .  A
C296        O297   1.283       .  A
C296        C346   1.488       .  S
C298        O300   1.269       .  A
C298        O304   1.278       .  A
C302        C315   1.397       .  S
In305       O307   2.152       .  S
In305       O308   2.150       .  S
In305       O316   2.208       .  S
In305       O310   2.243       .  S
In305       O312   2.323       .  S
C306        O312   1.280       .  A
C306        C337   1.550       .  S
O307        C315   1.271       .  A
O308        C315   1.261       .  A
C309        O316   1.260       .  A
C309        O310   1.281       .  A
C311        O313   1.266       .  A
C311        O317   1.271       .  A
C318        C319   1.545       .  S
C318        C826   1.536       .  S
C318        C366   1.538       .  S
C319        H326   1.080       .  S
C319        C320   1.365       .  D
C320        C321   1.593       .  S
C321        C827   1.605       .  S
C321        H327   1.078       .  S
C322        C822   1.536   1_455  S
C322        H328   1.087       .  S
C322        C323   1.364       .  D
C323        C825   1.604   1_455  S
C324        H329   1.086       .  S
C324        C325   1.364       .  D
C330        C588   1.544       .  S
C330        C334   1.536   1_545  S
C330        C369   1.537       .  S
C331        H338   1.087       .  S
C331        C332   1.363       .  D
C333        C589   1.595       .  S
C333        C335   1.605   1_545  S
C333        H339   1.077       .  S
C334        H340   1.087       .  S
C334        C335   1.364       .  D
C335        C343   1.558       .  S
C336        C582   1.545       .  S
C336        H341   1.081       .  S
C336        C337   1.366       .  D
C337        C585   1.595       .  S
In342       O344   2.172       .  S
In342       O345   2.041       .  S
In342       O353   2.241       .  S
In342       O347   2.258       .  S
In342       O349   2.302       .  S
In342       O350   2.047       .  S
In342       O351   2.361       .  S
In342       O354   2.168       .  S
C343        O349   1.278       .  A
C343        O351   1.272       .  A
O344        C352   1.278       .  A
O345        C352   1.269       .  A
C346        O353   1.275       .  A
C346        O347   1.283       .  A
C348        O350   1.269       .  A
C348        O354   1.278       .  A
C355        C356   1.400       .  A
C355        C360   1.404       .  A
C355        H371   1.083       .  S
C356        C483   1.404       .  A
C356        H498   1.084       .  S
C357        C482   1.404       .  A
C357        C988   1.408   1_454  A
C358        C987   1.408       .  A
C358        C490   1.410       .  A
C358        C359   1.415       .  A
C359        C864   1.411       .  A
C360        C863   1.411       .  A
C360        C368   1.407       .  A
C361        C370   1.403   1_565  A
C361        C362   1.404       .  A
C362        H373   1.084       .  S
C363        C364   1.404   1_556  A
C363        H374   1.084   1_556  S
C364        C484   1.410   1_554  A
C364        C365   1.406       .  A
C365        C366   1.413       .  A
C365        H375   1.077       .  S
C366        C619   1.414       .  A
C367        C618   1.413   1_455  A
C367        H376   1.084       .  S
C368        C621   1.413       .  A
C368        H377   1.077       .  S
C369        C620   1.414       .  A
C369        C370   1.413       .  A
C370        H378   1.084       .  S
H372        C482   1.084       .  S
In379       O381   2.135       .  S
In379       O382   2.092       .  S
In379       O390   2.204       .  S
In379       O386   2.319       .  S
C380        O386   1.281       .  A
C380        C446   1.548       .  S
O381        C389   1.271       .  A
O382        C389   1.266       .  A
C383        O390   1.259       .  A
C383        C435   1.466       .  S
C385        O387   1.261       .  A
C385        O391   1.271       .  A
C385        C474   1.397       .  S
C389        C402   1.390       .  S
In392       O394   2.124       .  S
In392       O395   2.114       .  S
In392       O403   2.205       .  S
In392       O901   2.241       .  S
In392       O399   2.319       .  S
In392       O904   2.160       .  S
In392       O905   2.357       .  S
In392       O908   2.155       .  S
C393        O399   1.279       .  A
C393        O905   1.267       .  A
C393        C458   1.547       .  S
O394        C402   1.269       .  A
O395        C402   1.266       .  A
C396        O403   1.258       .  A
C396        O901   1.279       .  A
C396        C409   1.461       .  S
O397       In896   2.239       .  S
O397        C900   1.279       .  A
C398        O400   1.261       .  A
C398        O404   1.269       .  A
C398        C424   1.398       .  S
O400       In896   2.162       .  S
O401       In896   2.357       .  S
O401        C897   1.267       .  A
O404       In896   2.156       .  S
In405       O407   2.156       .  S
In405       O408   2.162       .  S
In405       O416   2.204       .  S
In405       O410   2.239       .  S
In405       O412   2.321       .  S
In405       O917   2.114       .  S
In405       O414   2.356       .  S
In405       O921   2.127       .  S
C406        O412   1.279       .  A
C406        O414   1.267       .  A
C406        C451   1.547       .  S
O407        C415   1.269       .  A
O408        C415   1.261       .  A
C409        O416   1.258       .  A
C409        O410   1.279       .  A
C411        O413   1.266       .  A
C411        O417   1.269       .  A
C411        C437   1.390       .  S
O413       In909   2.114   1_455  S
C415        C478   1.398       .  S
O417       In909   2.124   1_455  S
In418       O420   2.168       .  S
In418       O421   2.047       .  S
In418       O429   2.241       .  S
In418       O423   2.258       .  S
In418       O425   2.302       .  S
In418       O426   2.041       .  S
In418       O427   2.361       .  S
In418       O430   2.172       .  S
C419        O425   1.278       .  A
C419        O427   1.272       .  A
C419        C449   1.558       .  S
O420        C428   1.278       .  A
O421        C428   1.269       .  A
C422        O429   1.275       .  A
C422        O423   1.283       .  A
C422        C472   1.488       .  S
C424        O426   1.269       .  A
C424        O430   1.278       .  A
C428        C441   1.397       .  S
In431       O433   2.152       .  S
In431       O434   2.150       .  S
In431       O442   2.208       .  S
In431       O436   2.243       .  S
In431       O438   2.323       .  S
C432        O438   1.280       .  A
C432        C463   1.550       .  S
O433        C441   1.271       .  A
O434        C441   1.261       .  A
C435        O442   1.260       .  A
C435        O436   1.281       .  A
C437        O439   1.266       .  A
C437        O443   1.271       .  A
C444        C445   1.545       .  S
C444        C952   1.536       .  S
C444        C492   1.538       .  S
C445        H452   1.080       .  S
C445        C446   1.365       .  D
C446        C447   1.593       .  S
C447        C953   1.605       .  S
C447        H453   1.078       .  S
C448        C948   1.536   1_455  S
C448        H454   1.087       .  S
C448        C449   1.364       .  D
C449        C951   1.605   1_455  S
C450        H455   1.087       .  S
C450        C451   1.364       .  D
C456        C714   1.544       .  S
C456        C460   1.536   1_545  S
C456        C495   1.538       .  S
C457        H464   1.087       .  S
C457        C458   1.363       .  D
C459        C715   1.595       .  S
C459        C461   1.605   1_545  S
C459        H465   1.077       .  S
C460        H466   1.087       .  S
C460        C461   1.364       .  D
C461        C469   1.558       .  S
C462        C708   1.545       .  S
C462        H467   1.081       .  S
C462        C463   1.366       .  D
C463        C711   1.595       .  S
In468       O470   2.172       .  S
In468       O471   2.041       .  S
In468       O479   2.241       .  S
In468       O473   2.259       .  S
In468       O475   2.302       .  S
In468       O476   2.047       .  S
In468       O477   2.361       .  S
In468       O480   2.168       .  S
C469        O475   1.278       .  A
C469        O477   1.272       .  A
O470        C478   1.278       .  A
O471        C478   1.269       .  A
C472        O479   1.275       .  A
C472        O473   1.283       .  A
C474        O476   1.269       .  A
C474        O480   1.278       .  A
C481        C482   1.400   1_556  A
C481        C486   1.404       .  A
C481        H497   1.083       .  S
C483        C862   1.408   1_455  A
C484        C861   1.408   1_556  A
C484        C485   1.415       .  A
C485        C990   1.411       .  A
C486        C989   1.411       .  A
C486        C494   1.407       .  A
C487        C496   1.403   1_565  A
C487        C488   1.404       .  A
C488        H499   1.084       .  S
C489        C490   1.404       .  A
C489        H500   1.084       .  S
C490        C491   1.406       .  A
C491        C492   1.413       .  A
C491        H501   1.077       .  S
C492        C745   1.414       .  A
C493        C744   1.413   1_455  A
C493        H502   1.085       .  S
C494        C747   1.414       .  A
C494        H503   1.078       .  S
C495        C746   1.414       .  A
C495        C496   1.413       .  A
C496        H504   1.084       .  S
In505       O507   2.132   1_565  S
In505       O508   2.100   1_565  S
In505       O516   2.210       .  S
In505       O762   2.244       .  S
In505       O512   2.323       .  S
In505       O765   2.150       .  S
In505       O766   2.359       .  S
In505       O769   2.150       .  S
C506        O512   1.280       .  A
C506        O766   1.268       .  A
C506        C572   1.551       .  S
O507        C515   1.270       .  A
O508        C515   1.267       .  A
C509        O516   1.260       .  A
C509        O762   1.281       .  A
C509        C561   1.468   1_565  S
O510       In757   2.248       .  S
O510        C761   1.281       .  A
C511        O513   1.261       .  A
C511        O517   1.271       .  A
C511        C600   1.398       .  S
O513       In757   2.147       .  S
O514       In757   2.356       .  S
O514        C758   1.268       .  A
C515        C528   1.391       .  S
O517       In757   2.150       .  S
In518       O520   2.129   1_455  S
In518       O521   2.110   1_455  S
In518       O529   2.205       .  S
In518       O525   2.320       .  S
C519        O525   1.279       .  A
C519        C584   1.548       .  S
O520        C528   1.269       .  A
O521        C528   1.266       .  A
C522        O529   1.259       .  A
C522        C535   1.463   1_455  S
C524        O526   1.262       .  A
C524        O530   1.270       .  A
C524        C550   1.398       .  S
In531       O533   2.151       .  S
In531       O534   2.154       .  S
In531       O542   2.205       .  S
In531       O536   2.241       .  S
In531       O538   2.319       .  S
In531       O540   2.357       .  S
C532        O538   1.279       .  A
C532        O540   1.267       .  A
C532        C577   1.548       .  S
O533        C541   1.270       .  A
O534        C541   1.262       .  A
C535        O542   1.259       .  A
C535        O536   1.280       .  A
C537        O539   1.266       .  A
C537        O543   1.269       .  A
C537        C563   1.391       .  S
C541        C604   1.398       .  S
In544       O546   2.164       .  S
In544       O547   2.054       .  S
In544       O555   2.237       .  S
In544       O549   2.255       .  S
In544       O551   2.300       .  S
In544       O552   2.051       .  S
In544       O553   2.361       .  S
In544       O556   2.167       .  S
C545        O551   1.279       .  A
C545        O553   1.272       .  A
C545        C575   1.558       .  S
O546        C554   1.278       .  A
O547        C554   1.270       .  A
C548        O555   1.274       .  A
C548        O549   1.284       .  A
C548        C598   1.486       .  S
C550        O552   1.270       .  A
C550        O556   1.277       .  A
C554        C567   1.398       .  S
In557       O559   2.150       .  S
In557       O560   2.147       .  S
In557       O568   2.207       .  S
In557       O562   2.248       .  S
In557       O564   2.320       .  S
In557       O817   2.097   1_545  S
In557       O818   2.356       .  S
In557       O821   2.134   1_545  S
C558        O564   1.281       .  A
C558        O818   1.268       .  A
C558        C589   1.550       .  S
O559        C567   1.271       .  A
O560        C567   1.261       .  A
C561        O568   1.260       .  A
C561        O562   1.281       .  A
C563        O565   1.267       .  A
C563        O569   1.270       .  A
O565       In809   2.100       .  S
O566       In809   2.359       .  S
O566        C810   1.268       .  A
O569       In809   2.132       .  S
C570        C571   1.545       .  S
C570        C828   1.534       .  S
C570        C618   1.537       .  S
C571        H578   1.081       .  S
C571        C572   1.367       .  D
C572        C573   1.597       .  S
C573        C829   1.596       .  S
C573        H579   1.076       .  S
C574        H580   1.087       .  S
C574        C575   1.363       .  D
C576        C822   1.534       .  S
C576        H581   1.087       .  S
C576        C577   1.363       .  D
C577        C825   1.596       .  S
C582        C835   1.535       .  S
C582        C586   1.535   1_455  S
C582        C621   1.538       .  S
C583        C834   1.535       .  S
C583        H590   1.086       .  S
C583        C584   1.364       .  D
C584        C837   1.595       .  S
C585        C836   1.595       .  S
C585        C587   1.605   1_455  S
C585        H591   1.077       .  S
C586        H592   1.087       .  S
C586        C587   1.363       .  D
C587        C595   1.558       .  S
C588        H593   1.081       .  S
C588        C589   1.365       .  D
In594       O596   2.167       .  S
In594       O597   2.051       .  S
In594       O605   2.237       .  S
In594       O599   2.255       .  S
In594       O601   2.300       .  S
In594       O602   2.054       .  S
In594       O603   2.361       .  S
In594       O606   2.164       .  S
C595        O601   1.279       .  A
C595        O603   1.272       .  A
O596        C604   1.277       .  A
O597        C604   1.270       .  A
C598        O605   1.274       .  A
C598        O599   1.284       .  A
C600        O602   1.270       .  A
C600        O606   1.278       .  A
C607        C608   1.400       .  A
C607        C612   1.404       .  A
C607        H623   1.084       .  S
C608        C735   1.404       .  A
C608        H750   1.084       .  S
C609        C734   1.404       .  A
C609        C871   1.403   1_545  A
C610        C742   1.411       .  A
C610        C611   1.415   1_565  A
C611        C865   1.408   1_545  A
C612        C620   1.407       .  A
C613        C863   1.408   1_655  A
C613        C622   1.403       .  A
C613        C614   1.404       .  A
C614        C993   1.400       .  A
C614        H625   1.084       .  S
C615        C992   1.401       .  A
C615        C616   1.405   1_556  A
C615        H626   1.083   1_556  S
C616        C736   1.411       .  A
C616        C617   1.408       .  A
C617        C618   1.414       .  A
C617        H627   1.078       .  S
C619        C861   1.404       .  A
C619        H628   1.084       .  S
C620        H629   1.077       .  S
C621        C622   1.413   1_455  A
C622        H630   1.084       .  S
H624        C734   1.084       .  S
In631       O633   2.132   1_565  S
In631       O634   2.100   1_565  S
In631       O642   2.210       .  S
In631       O888   2.244       .  S
In631       O638   2.323       .  S
In631       O891   2.150       .  S
In631       O892   2.359       .  S
In631       O895   2.150       .  S
C632        O638   1.280       .  A
C632        O892   1.268       .  A
C632        C698   1.551       .  S
O633        C641   1.270       .  A
O634        C641   1.267       .  A
C635        O642   1.260       .  A
C635        O888   1.281       .  A
C635        C687   1.468   1_565  S
O636       In883   2.248       .  S
O636        C887   1.281       .  A
C637        O639   1.261       .  A
C637        O643   1.271       .  A
C637        C726   1.398       .  S
O639       In883   2.147       .  S
O640       In883   2.356       .  S
O640        C884   1.268       .  A
C641        C654   1.391       .  S
O643       In883   2.149       .  S
In644       O646   2.129   1_455  S
In644       O647   2.110   1_455  S
In644       O655   2.205       .  S
In644       O651   2.320       .  S
C645        O651   1.279       .  A
C645        C710   1.548       .  S
O646        C654   1.269       .  A
O647        C654   1.266       .  A
C648        O655   1.259       .  A
C648        C661   1.463   1_455  S
C650        O652   1.262       .  A
C650        O656   1.270       .  A
C650        C676   1.398       .  S
In657       O659   2.151       .  S
In657       O660   2.154       .  S
In657       O668   2.205       .  S
In657       O662   2.241       .  S
In657       O664   2.319       .  S
In657       O666   2.357       .  S
C658        O664   1.279       .  A
C658        O666   1.267       .  A
C658        C703   1.548       .  S
O659        C667   1.270       .  A
O660        C667   1.262       .  A
C661        O668   1.259       .  A
C661        O662   1.280       .  A
C663        O665   1.266       .  A
C663        O669   1.269       .  A
C663        C689   1.391       .  S
C667        C730   1.398       .  S
In670       O672   2.164       .  S
In670       O673   2.054       .  S
In670       O681   2.237       .  S
In670       O675   2.255       .  S
In670       O677   2.300       .  S
In670       O678   2.051       .  S
In670       O679   2.361       .  S
In670       O682   2.167       .  S
C671        O677   1.279       .  A
C671        O679   1.272       .  A
C671        C701   1.558       .  S
O672        C680   1.278       .  A
O673        C680   1.270       .  A
C674        O681   1.274       .  A
C674        O675   1.284       .  A
C674        C724   1.486       .  S
C676        O678   1.270       .  A
C676        O682   1.277       .  A
C680        C693   1.398       .  S
In683       O685   2.150       .  S
In683       O686   2.147       .  S
In683       O694   2.207       .  S
In683       O688   2.248       .  S
In683       O690   2.320       .  S
In683       O943   2.097   1_545  S
In683       O944   2.356       .  S
In683       O947   2.134   1_545  S
C684        O690   1.281       .  A
C684        O944   1.268       .  A
C684        C715   1.549       .  S
O685        C693   1.271       .  A
O686        C693   1.261       .  A
C687        O694   1.260       .  A
C687        O688   1.281       .  A
C689        O691   1.267       .  A
C689        O695   1.270       .  A
O691       In935   2.100       .  S
O692       In935   2.359       .  S
O692        C936   1.268       .  A
O695       In935   2.132       .  S
C696        C697   1.545       .  S
C696        C954   1.534       .  S
C696        C744   1.537       .  S
C697        H704   1.081       .  S
C697        C698   1.367       .  D
C698        C699   1.597       .  S
C699        C955   1.596       .  S
C699        H705   1.077       .  S
C700        H706   1.087       .  S
C700        C701   1.363       .  D
C702        C948   1.534       .  S
C702        H707   1.087       .  S
C702        C703   1.363       .  D
C703        C951   1.596       .  S
C708        C961   1.535       .  S
C708        C712   1.535   1_455  S
C708        C747   1.538       .  S
C709        C960   1.535       .  S
C709        H716   1.086       .  S
C709        C710   1.364       .  D
C710        C963   1.595       .  S
C711        C962   1.595       .  S
C711        C713   1.605   1_455  S
C711        H717   1.077       .  S
C712        H718   1.087       .  S
C712        C713   1.363       .  D
C713        C721   1.558       .  S
C714        H719   1.081       .  S
C714        C715   1.365       .  D
In720       O722   2.167       .  S
In720       O723   2.051       .  S
In720       O731   2.237       .  S
In720       O725   2.255       .  S
In720       O727   2.300       .  S
In720       O728   2.054       .  S
In720       O729   2.361       .  S
In720       O732   2.164       .  S
C721        O727   1.279       .  A
C721        O729   1.272       .  A
O722        C730   1.277       .  A
O723        C730   1.270       .  A
C724        O731   1.274       .  A
C724        O725   1.284       .  A
C726        O728   1.270       .  A
C726        O732   1.278       .  A
C733        C734   1.400   1_556  A
C733        C738   1.404       .  A
C733        H749   1.084       .  S
C735        C997   1.403   1_545  A
C736        C737   1.415   1_564  A
C737        C991   1.408   1_545  A
C738        C746   1.407       .  A
C739        C989   1.408   1_655  A
C739        C748   1.403       .  A
C739        C740   1.404       .  A
C740        C867   1.400       .  A
C740        H751   1.084       .  S
C741        C866   1.401       .  A
C741        C742   1.405       .  A
C741        H752   1.083       .  S
C742        C743   1.408       .  A
C743        C744   1.414       .  A
C743        H753   1.078       .  S
C745        C987   1.404       .  A
C745        H754   1.084       .  S
C746        H755   1.077       .  S
C747        C748   1.413   1_455  A
C748        H756   1.084       .  S
In757       O759   2.134       .  S
In757       O760   2.097       .  S
In757       O768   2.207       .  S
In757       O764   2.320       .  S
C758        O764   1.281       .  A
C758        C824   1.549       .  S
O759        C767   1.270       .  A
O760        C767   1.266       .  A
C761        O768   1.260       .  A
C761        C813   1.468       .  S
C763        O765   1.262       .  A
C763        O769   1.271       .  A
C763        C852   1.398       .  S
C767        C780   1.391       .  S
In770       O772   2.127   1_455  S
In770       O773   2.114   1_455  S
In770       O781   2.204       .  S
In770       O777   2.321       .  S
C771        O777   1.279       .  A
C771        C836   1.547       .  S
O772        C780   1.268       .  A
O773        C780   1.266       .  A
C774        O781   1.258       .  A
C774        C787   1.461   1_455  S
C776        O778   1.261       .  A
C776        O782   1.269       .  A
C776        C802   1.400       .  S
In783       O785   2.155       .  S
In783       O786   2.160       .  S
In783       O794   2.205       .  S
In783       O788   2.241       .  S
In783       O790   2.319       .  S
In783       O792   2.357       .  S
C784        O790   1.279       .  A
C784        O792   1.267       .  A
C784        C829   1.547       .  S
O785        C793   1.269       .  A
O786        C793   1.261       .  A
C787        O794   1.258       .  A
C787        O788   1.279       .  A
C789        O791   1.266       .  A
C789        O795   1.268       .  A
C789        C815   1.391       .  S
C793        C856   1.400       .  S
In796       O798   2.167       .  S
In796       O799   2.050       .  S
In796       O807   2.239       .  S
In796       O801   2.255       .  S
In796       O803   2.300       .  S
In796       O804   2.048       .  S
In796       O805   2.360       .  S
In796       O808   2.170       .  S
C797        O803   1.278       .  A
C797        O805   1.272       .  A
C797        C827   1.557       .  S
O798        C806   1.278       .  A
O799        C806   1.269       .  A
C800        O807   1.275       .  A
C800        O801   1.283       .  A
C800        C850   1.487       .  S
C802        O804   1.269       .  A
C802        O808   1.277       .  A
C806        C819   1.398       .  S
In809       O811   2.150       .  S
In809       O812   2.150       .  S
In809       O820   2.210       .  S
In809       O814   2.244       .  S
In809       O816   2.323       .  S
C810        O816   1.280       .  A
C810        C841   1.551       .  S
O811        C819   1.271       .  A
O812        C819   1.262       .  A
C813        O820   1.260       .  A
C813        O814   1.281       .  A
C815        O817   1.266       .  A
C815        O821   1.270       .  A
C822        C823   1.544       .  S
C822        C870   1.538       .  S
C823        H830   1.081       .  S
C823        C824   1.365       .  D
C824        C825   1.595       .  S
C825        H831   1.077       .  S
C826        H832   1.087       .  S
C826        C827   1.364       .  D
C828        H833   1.087       .  S
C828        C829   1.363       .  D
C834        C838   1.536   1_445  S
C834        C873   1.538       .  S
C835        H842   1.087       .  S
C835        C836   1.364       .  D
C837        C839   1.605   1_445  S
C837        H843   1.078       .  S
C838        H844   1.087       .  S
C838        C839   1.364       .  D
C839        C847   1.557       .  S
C840        H845   1.081       .  S
C840        C841   1.367       .  D
In846       O848   2.170       .  S
In846       O849   2.048       .  S
In846       O857   2.239       .  S
In846       O851   2.256       .  S
In846       O853   2.300       .  S
In846       O854   2.050       .  S
In846       O855   2.360       .  S
In846       O858   2.167       .  S
C847        O853   1.278       .  A
C847        O855   1.272       .  A
O848        C856   1.277       .  A
O849        C856   1.269       .  A
C850        O857   1.275       .  A
C850        O851   1.283       .  A
C852        O854   1.269       .  A
C852        O858   1.278       .  A
C859        C860   1.401       .  A
C859        C864   1.405       .  A
C859        H875   1.083       .  S
C860        C987   1.404       .  A
C860       H1002   1.083       .  S
C861        C986   1.404       .  A
C862        C994   1.410       .  A
C862        C863   1.415   1_655  A
C864        C872   1.408       .  A
C865        C874   1.404   1_565  A
C865        C866   1.404       .  A
C866        H877   1.083       .  S
C867        C868   1.404   1_556  A
C867        H878   1.084   1_556  S
C868        C988   1.410   1_554  A
C868        C869   1.407       .  A
C869        C870   1.414       .  A
C869        H879   1.077       .  S
C871        H880   1.084       .  S
C872        H881   1.078       .  S
C873        C874   1.414   1_455  A
C874        H882   1.084       .  S
H876        C986   1.083       .  S
In883       O885   2.134       .  S
In883       O886   2.097       .  S
In883       O894   2.207       .  S
In883       O890   2.320       .  S
C884        O890   1.281       .  A
C884        C950   1.549       .  S
O885        C893   1.270       .  A
O886        C893   1.266       .  A
C887        O894   1.260       .  A
C887        C939   1.468       .  S
C889        O891   1.262       .  A
C889        O895   1.271       .  A
C889        C978   1.398       .  S
C893        C906   1.391       .  S
In896       O898   2.127   1_455  S
In896       O899   2.114   1_455  S
In896       O907   2.205       .  S
In896       O903   2.321       .  S
C897        O903   1.279       .  A
C897        C962   1.547       .  S
O898        C906   1.268       .  A
O899        C906   1.266       .  A
C900        O907   1.258       .  A
C900        C913   1.461   1_455  S
C902        O904   1.261       .  A
C902        O908   1.269       .  A
C902        C928   1.400       .  S
In909       O911   2.155       .  S
In909       O912   2.160       .  S
In909       O920   2.205       .  S
In909       O914   2.241       .  S
In909       O916   2.319       .  S
In909       O918   2.357       .  S
C910        O916   1.279       .  A
C910        O918   1.267       .  A
C910        C955   1.547       .  S
O911        C919   1.269       .  A
O912        C919   1.261       .  A
C913        O920   1.258       .  A
C913        O914   1.279       .  A
C915        O917   1.266       .  A
C915        O921   1.268       .  A
C915        C941   1.391       .  S
C919        C982   1.400       .  S
In922       O924   2.167       .  S
In922       O925   2.050       .  S
In922       O933   2.239       .  S
In922       O927   2.255       .  S
In922       O929   2.300       .  S
In922       O930   2.048       .  S
In922       O931   2.360       .  S
In922       O934   2.170       .  S
C923        O929   1.278       .  A
C923        O931   1.272       .  A
C923        C953   1.557       .  S
O924        C932   1.278       .  A
O925        C932   1.269       .  A
C926        O933   1.275       .  A
C926        O927   1.283       .  A
C926        C976   1.487       .  S
C928        O930   1.269       .  A
C928        O934   1.277       .  A
C932        C945   1.398       .  S
In935       O937   2.150       .  S
In935       O938   2.150       .  S
In935       O946   2.210       .  S
In935       O940   2.244       .  S
In935       O942   2.323       .  S
C936        O942   1.280       .  A
C936        C967   1.551       .  S
O937        C945   1.271       .  A
O938        C945   1.262       .  A
C939        O946   1.260       .  A
C939        O940   1.281       .  A
C941        O943   1.266       .  A
C941        O947   1.270       .  A
C948        C949   1.544       .  S
C948        C996   1.537       .  S
C949        H956   1.081       .  S
C949        C950   1.365       .  D
C950        C951   1.595       .  S
C951        H957   1.077       .  S
C952        H958   1.087       .  S
C952        C953   1.364       .  D
C954        H959   1.087       .  S
C954        C955   1.363       .  D
C960        C964   1.536   1_445  S
C960        C999   1.538       .  S
C961        H968   1.086       .  S
C961        C962   1.364       .  D
C963        C965   1.605   1_445  S
C963        H969   1.078       .  S
C964        H970   1.087       .  S
C964        C965   1.364       .  D
C965        C973   1.557       .  S
C966        H971   1.081       .  S
C966        C967   1.367       .  D
In972       O974   2.171       .  S
In972       O975   2.048       .  S
In972       O983   2.239       .  S
In972       O977   2.255       .  S
In972       O979   2.300       .  S
In972       O980   2.050       .  S
In972       O981   2.360       .  S
In972       O984   2.167       .  S
C973        O979   1.278       .  A
C973        O981   1.272       .  A
O974        C982   1.277       .  A
O975        C982   1.269       .  A
C976        O983   1.275       .  A
C976        O977   1.283       .  A
C978        O980   1.269       .  A
C978        O984   1.278       .  A
C985        C986   1.401   1_556  A
C985        C990   1.405       .  A
C985       H1001   1.083       .  S
C988        C989   1.415   1_655  A
C990        C998   1.408       .  A
C991       C1000   1.404   1_565  A
C991        C992   1.404       .  A
C992       H1003   1.083       .  S
C993        C994   1.404       .  A
C993       H1004   1.084       .  S
C994        C995   1.407       .  A
C995        C996   1.414       .  A
C995       H1005   1.077       .  S
C997       H1006   1.084       .  S
C998       H1007   1.078       .  S
C999       C1000   1.414   1_455  A
C1000      H1008   1.084       .  S
