geometry optimzed in LAMMPS
_audit_creation_date              2020-11-30 
_audit_creation_method            'lammps2cif' 
_symmetry_space_group_name_H-M    'P1' 
_symmetry_Int_Tables_number       1 
_symmetry_cell_setting            triclinic 
loop_ 
_symmetry_equiv_pos_as_xyz 
  x,y,z 
_cell_length_a                    45.88157438 
_cell_length_b                    44.7578406445403 
_cell_length_c                    36.89265548372366 
_cell_angle_alpha                 90.95771312122623 
_cell_angle_beta                  90.0833093645933 
_cell_angle_gamma                 120.40083452225811 
loop_ 
_atom_site_label 
_atom_site_type_symbol 
_atom_site_fract_x 
_atom_site_fract_y 
_atom_site_fract_z 
_atom_site_charge 
O1          O  0.22233382  0.20180402  0.04094617    -0.74300
O2          O  0.28628233  0.25437714  0.46646466    -0.74300
O3          O  0.28440985  0.26083444  0.03878850    -0.74400
O4          O  0.22453688  0.19552932  0.46761913    -0.74400
O5          O  0.19869200  0.22578473  0.46148931    -0.74400
O6          O  0.25867123  0.29130008  0.03283304    -0.74400
O7          O  0.26063402  0.28501237  0.45987102    -0.74300
O8          O  0.19693480  0.23269581  0.03419536    -0.74400
Ni9        Ni  0.25503948  0.22692811  0.00374959     1.25400
Ni10       Ni  0.22792822  0.25976128  0.49681214     1.25400
C11         C  0.19902858  0.20841351  0.04958875     0.87900
C12         C  0.28441983  0.27904220  0.45158690     0.87800
C13         C  0.28197468  0.28734740  0.04703956     0.87800
C14         C  0.20161858  0.19968629  0.45267280     0.88000
O15         O  0.47256292  0.26610479  0.03651753    -0.74300
O16         O  0.48024493  0.20284352  0.47178881    -0.74300
O17         O  0.47289380  0.20632987  0.04524910    -0.74400
O18         O  0.47928953  0.26232644  0.46423401    -0.74400
O19         O  0.03580928  0.29453950  0.47226390    -0.74400
O20         O  0.02862029  0.23458132  0.05065447    -0.74400
O21         O  0.03700608  0.23487814  0.47726958    -0.74300
O22         O  0.02802381  0.29489242  0.04559896    -0.74400
Ni23       Ni  0.47444365  0.23333169  0.50435357     1.25400
Ni24       Ni  0.03487970  0.26606686  0.51193887     1.25400
C25         C  0.99877818  0.29079738  0.05182414     0.87900
C26         C  0.01045677  0.20975245  0.46237552     0.87800
C27         C  0.99946730  0.21123276  0.06185063     0.87800
C28         C  0.00869402  0.28815741  0.45529071     0.88000
O29         O  0.24126875  0.04214112  0.46314347    -0.74300
O30         O  0.30757860  0.04932148  0.03256094    -0.74300
O31         O  0.30242007  0.04822727  0.45881812    -0.74400
O32         O  0.24466028  0.04363503  0.03676986    -0.74400
O33         O  0.21991034  0.48468771  0.03478592    -0.74400
O34         O  0.27967395  0.48882928  0.45936517    -0.74400
O35         O  0.28145107  0.48801648  0.03245434    -0.74300
O36         O  0.21977371  0.48555615  0.46086003    -0.74400
Ni37       Ni  0.27490496  0.04784801  0.49825071     1.25400
Ni38       Ni  0.24925591  0.48494564  0.49696794     1.25400
C39         C  0.21962711  0.01206072  0.45039742     0.87900
C40         C  0.30633373  0.02151516  0.04329797     0.87800
C41         C  0.29981104  0.02036693  0.44546069     0.87800
C42         C  0.22164933  0.01398212  0.04801041     0.88000
C43         C  0.49689674  0.45046438  0.25444653    -0.02400
C44         C  0.50121176  0.04065359  0.25444606    -0.02400
C45         C  0.04233285  0.03577277  0.24794049    -0.02400
C46         C  0.04096026  0.99058056  0.25037583    -0.02400
C47         C  0.45575452  0.99853895  0.25153469    -0.02400
C48         C  0.45272992  0.45136675  0.25357781    -0.02400
C49         C  0.33241040  0.02311617  0.06853135     0.01500
C50         C  0.35429005  0.50835091  0.05759071     0.04300
C51         C  0.37665838  0.50643370  0.08272831    -0.11800
C52         C  0.37427426  0.01452427  0.12060212     0.23600
C53         C  0.35153987  0.02637691  0.13085534    -0.12300
C54         C  0.33262464  0.03245325  0.10482574     0.05000
C55         C  0.39369257  0.00624640  0.14937375     0.27400
C56         C  0.37811678  0.47619504  0.17240099    -0.13000
C57         C  0.39569704  0.47299598  0.20391529     0.05500
C58         C  0.43234713  0.99468603  0.21107864    -0.09000
C59         C  0.44608016  0.01294358  0.17724466     0.06300
C60         C  0.42912270  0.02516740  0.15354879    -0.13400
Br61       Br  0.34242241  0.03274209  0.18010062    -0.05400
Br62       Br  0.35514004  0.49749756  0.00679396     0.00200
Br63       Br  0.35957735  0.45133515  0.23805982     0.00600
Br64       Br  0.45317544  0.06013583  0.11753925    -0.03800
Br65       Br  0.30527747  0.05241645  0.11883659     0.00700
Br66       Br  0.40890942  0.49505430  0.06278509    -0.03100
Br67       Br  0.32913112  0.44720545  0.16359126    -0.03900
Br68       Br  0.44810573  0.98747296  0.13552434     0.00000
C69         C  0.31883716  0.02140994  0.41200488     0.01500
C70         C  0.34879805  0.05197131  0.40178052     0.04300
C71         C  0.36555669  0.05203809  0.36979256    -0.11800
C72         C  0.35700845  0.02068233  0.35176229     0.23600
C73         C  0.32485417  0.48640119  0.35982397    -0.12300
C74         C  0.30522266  0.48844513  0.38814118     0.05000
C75         C  0.38267578  0.01832300  0.32798039     0.27400
C76         C  0.38256721  0.02161810  0.29109711    -0.13000
C77         C  0.40799505  0.02093172  0.26875586     0.05500
C78         C  0.43133993  0.00819764  0.28039722    -0.09000
C79         C  0.43124860  0.50460437  0.32002315     0.06300
C80         C  0.40837924  0.50991734  0.34279529    -0.13400
Br81       Br  0.30526184  0.44540930  0.32921730    -0.05400
Br82       Br  0.36918432  0.09378644  0.43137114     0.00200
Br83       Br  0.40658532  0.04349636  0.22501277     0.00600
Br84       Br  0.40740530  0.50702012  0.39594148    -0.03800
Br85       Br  0.25824087  0.45216954  0.39129113     0.00700
Br86       Br  0.39428151  0.09515159  0.34608469    -0.03100
Br87       Br  0.34575074  0.02766474  0.27265833    -0.03900
Br88       Br  0.45538521  0.49126298  0.35010611     0.00000
C89         C  0.19522753  0.00796041  0.42165173     0.01500
C90         C  0.16326807  0.48794129  0.42709261     0.04300
C91         C  0.13962757  0.48286218  0.40000352    -0.11800
C92         C  0.14789249  0.99549114  0.36509087     0.23600
C93         C  0.18283364  0.01922605  0.36042204    -0.12300
C94         C  0.20623311  0.02596388  0.38883586     0.05000
C95         C  0.12174301  0.99207020  0.33731774     0.27400
C96         C  0.11786564  0.47672521  0.30856437    -0.13000
C97         C  0.09371907  0.47369232  0.28067446     0.05500
C98         C  0.06712865  0.98519103  0.28362256    -0.09000
C99         C  0.07210100  0.99607871  0.32191094     0.06300
C100        C  0.10203232  0.00705073  0.34361317    -0.13400
Br101      Br  0.19955145  0.04154153  0.31475567    -0.05400
Br102      Br  0.14782286  0.46374508  0.47248596     0.00200
Br103      Br  0.11194889  0.46122303  0.23979692     0.00600
Br104      Br  0.10643509  0.02475908  0.39340398    -0.03800
Br105      Br  0.25354283  0.05946770  0.38232919     0.00700
Br106      Br  0.09326010  0.44924616  0.40931433    -0.03100
Br107      Br  0.14761136  0.45626224  0.30585114    -0.03900
Br108      Br  0.04388718  0.96409618  0.35714855     0.00000
C109        C  0.06929949  0.99345477  0.21567495     0.01500
C110        C  0.06618745  0.47252377  0.18305142     0.04300
C111        C  0.08850545  0.47996428  0.15226928    -0.11800
C112        C  0.12001354  0.00466313  0.15435121     0.23600
C113        C  0.13035141  0.02416462  0.18687159    -0.12300
C114        C  0.10722008  0.01889005  0.21667426     0.05000
C115        C  0.14565717  0.00678901  0.12548391     0.27400
C116        C  0.16888777  0.49409891  0.13295524    -0.13000
C117        C  0.19193915  0.49429847  0.10726559     0.05500
C118        C  0.19594918  0.01183032  0.07469379    -0.09000
C119        C  0.17402600  0.02413328  0.06574557     0.06300
C120        C  0.14824925  0.02040881  0.08985222    -0.13400
Br121      Br  0.17934606  0.05702789  0.19010941    -0.05400
Br122      Br  0.05842245  0.42652460  0.18251093     0.00200
Br123      Br  0.21669183  0.47091943  0.11752417     0.00600
Br124      Br  0.11518181  0.03047662  0.06982379    -0.03800
Br125      Br  0.13759027  0.03615327  0.25985767     0.00700
Br126      Br  0.07453992  0.45349665  0.10608543    -0.03100
Br127      Br  0.16704060  0.47359975  0.17858889    -0.03900
Br128      Br  0.17804365  0.04427510  0.01867607     0.00000
C129        C  0.99195556  0.42425407  0.21960812     0.01500
C130        C  0.98437999  0.38759783  0.21780490     0.04300
C131        C  0.98697225  0.37205788  0.18449987    -0.11800
C132        C  0.98836128  0.38654226  0.15023291     0.23600
C133        C  0.49411801  0.42140994  0.15142536    -0.12300
C134        C  0.49570259  0.43869177  0.18524402     0.05000
C135        C  0.98293413  0.36363773  0.11614463     0.27400
C136        C  0.00780384  0.37451410  0.08881230    -0.13000
C137        C  0.01750112  0.35144716  0.07490281     0.05500
C138        C  0.99481914  0.31541782  0.07617311    -0.09000
C139        C  0.46569880  0.30344126  0.09751418     0.06300
C140        C  0.45953408  0.32698097  0.11727697    -0.13400
Br141      Br  0.49898661  0.44742534  0.10891213    -0.05400
Br142      Br  0.96913634  0.35126182  0.25505690     0.00200
Br143      Br  0.05914132  0.37079288  0.04816904     0.00600
Br144      Br  0.42043448  0.30635857  0.14813637    -0.03800
Br145      Br  0.49985910  0.48266382  0.18563511     0.00700
Br146      Br  0.99979761  0.33632113  0.18618140    -0.03100
Br147      Br  0.00565388  0.40094808  0.04934975    -0.03900
Br148      Br  0.43681283  0.25397196  0.10453500     0.00000
C149        C  0.00064743  0.42559631  0.28834088     0.01500
C150        C  0.47621552  0.40685535  0.31726154     0.04300
C151        C  0.47449720  0.37785942  0.33581691    -0.11800
C152        C  0.00403351  0.37693588  0.34276149     0.23600
C153        C  0.03170703  0.39888947  0.32263312    -0.12300
C154        C  0.02740264  0.41562925  0.29176380     0.05000
C155        C  0.00586682  0.35376991  0.37144226     0.27400
C156        C  0.00164986  0.35925127  0.40847266    -0.13000
C157        C  0.99991395  0.33597845  0.43476112     0.05500
C158        C  0.00967377  0.31156737  0.42641643    -0.09000
C159        C  0.51732781  0.30818768  0.39021191     0.06300
C160        C  0.51224135  0.32672197  0.36246918    -0.13400
Br161      Br  0.07317405  0.39926785  0.33491898    -0.05400
Br162      Br  0.46781942  0.42947144  0.35600077     0.00200
Br163      Br  0.98245841  0.33644537  0.48190014     0.00600
Br164      Br  0.51383843  0.31421863  0.31252770    -0.03800
Br165      Br  0.04532599  0.39676639  0.25749929     0.00700
Br166      Br  0.43466278  0.34108948  0.35724256    -0.03100
Br167      Br  0.00076551  0.39984916  0.42439752    -0.03900
Br168      Br  0.53704198  0.28004410  0.37906764     0.00000
C169        C  0.01438095  0.18923335  0.43277632     0.01500
C170        C  0.03675122  0.17663963  0.43712688     0.04300
C171        C  0.04224120  0.15918549  0.40818523    -0.11800
C172        C  0.02577253  0.15429935  0.37433525     0.23600
C173        C  0.50599207  0.17008923  0.36916248    -0.12300
C174        C  0.49807855  0.18497761  0.39872781     0.05000
C175        C  0.02284871  0.12698810  0.34742423     0.27400
C176        C  0.04710833  0.13244371  0.32213042    -0.13000
C177        C  0.03732472  0.10911152  0.29114439     0.05500
C178        C  0.51214937  0.07049229  0.29205268    -0.09000
C179        C  0.49413928  0.06494019  0.32705562     0.06300
C180        C  0.49576706  0.09249564  0.35026115    -0.13400
Br181      Br  0.49171879  0.17339269  0.32115634    -0.05400
Br182      Br  0.05782754  0.18061865  0.48381621     0.00200
Br183      Br  0.04075443  0.14366965  0.25642793     0.00600
Br184      Br  0.45752424  0.08804910  0.37821774    -0.03800
Br185      Br  0.46476130  0.19877414  0.39209835     0.00700
Br186      Br  0.07435392  0.14447834  0.41485924    -0.03100
Br187      Br  0.08649105  0.17891122  0.32433680    -0.03900
Br188      Br  0.50867275  0.06295221  0.37733201     0.00000
C189        C  0.99610694  0.19045083  0.09528689     0.01500
C190        C  0.02011079  0.20456098  0.12436661     0.04300
C191        C  0.01601151  0.18497671  0.15584073    -0.11800
C192        C  0.98890238  0.15061916  0.15851154     0.23600
C193        C  0.46234537  0.13953935  0.13319083    -0.12300
C194        C  0.46688254  0.15753209  0.10067216     0.05000
C195        C  0.99150687  0.12441193  0.18246178     0.27400
C196        C  0.01052402  0.10985569  0.17129455    -0.13000
C197        C  0.00919348  0.08092030  0.18974178     0.05500
C198        C  0.49549728  0.06865203  0.22632929    -0.09000
C199        C  0.47705608  0.08748923  0.23691732     0.06300
C200        C  0.47394729  0.11257933  0.21472203    -0.13400
Br201      Br  0.41759634  0.10420779  0.14580800    -0.05400
Br202      Br  0.05906386  0.25064029  0.12229796     0.00200
Br203      Br  0.01639872  0.05597097  0.15388499     0.00600
Br204      Br  0.45035591  0.13716701  0.22978528    -0.03800
Br205      Br  0.43386546  0.13370902  0.06236343     0.00700
Br206      Br  0.04426680  0.20686716  0.19776886    -0.03100
Br207      Br  0.03348640  0.12719526  0.12469881    -0.03900
Br208      Br  0.46019864  0.09193122  0.28366195     0.00000
C209        C  0.42176860  0.42575190  0.21860356     0.01500
C210        C  0.38310627  0.40376320  0.22055278     0.04300
C211        C  0.35936419  0.39103543  0.18985536    -0.11800
C212        C  0.37005102  0.39270464  0.15476004     0.23600
C213        C  0.40504241  0.41075355  0.14972646    -0.12300
C214        C  0.42831778  0.42102675  0.18068948     0.05000
C215        C  0.34683239  0.36521916  0.12691087     0.27400
C216        C  0.33614318  0.32956330  0.13168594    -0.13000
C217        C  0.31764784  0.30464872  0.10424305     0.05500
C218        C  0.30627968  0.31400937  0.07320813    -0.09000
C219        C  0.31699165  0.34921387  0.06805041     0.06300
C220        C  0.33626932  0.37418837  0.09497081    -0.13400
Br221      Br  0.41843079  0.41193567  0.09858111    -0.05400
Br222      Br  0.35193832  0.37765657  0.25836355     0.00200
Br223      Br  0.30900204  0.25785550  0.10961067     0.00600
Br224      Br  0.34605294  0.42021671  0.08796667    -0.03800
Br225      Br  0.42185278  0.37623369  0.16873640     0.00700
Br226      Br  0.30929145  0.36812193  0.19240218    -0.03100
Br227      Br  0.34278180  0.31252076  0.17692921    -0.03900
Br228      Br  0.30836592  0.36433451  0.02230628     0.00000
C229        C  0.42626453  0.42328141  0.28720438     0.01500
C230        C  0.41280618  0.38504607  0.28797796     0.04300
C231        C  0.39039186  0.36163502  0.31558675    -0.11800
C232        C  0.38395117  0.37411238  0.34771945     0.23600
C233        C  0.39584752  0.40922922  0.34930972    -0.12300
C234        C  0.40838402  0.42948171  0.31704173     0.05000
C235        C  0.35896437  0.35006076  0.37581614     0.27400
C236        C  0.32383135  0.33239723  0.36800686    -0.13000
C237        C  0.30052178  0.30659784  0.39082979     0.05500
C238        C  0.31049513  0.30177822  0.42513042    -0.09000
C239        C  0.34489545  0.32179242  0.43536263     0.06300
C240        C  0.36908930  0.34544594  0.41084360    -0.13400
Br241      Br  0.38759075  0.42663056  0.39465911    -0.05400
Br242      Br  0.40793857  0.35683747  0.24743746     0.00200
Br243      Br  0.25510088  0.27626003  0.37359028     0.00600
Br244      Br  0.41469583  0.37435606  0.42837446    -0.04400
Br245      Br  0.37052880  0.43572954  0.31436835     0.00700
Br246      Br  0.36364627  0.31090912  0.30885718    -0.03100
Br247      Br  0.30565952  0.34672224  0.32979625    -0.03900
Br248      Br  0.35850037  0.31835342  0.48401200     0.00000
C249        C  0.17959367  0.17458460  0.42377618     0.01500
C250        C  0.16815993  0.18560162  0.39390050     0.04300
C251        C  0.15452089  0.16397003  0.36291967    -0.11800
C252        C  0.14682766  0.12920585  0.36340290     0.23600
C253        C  0.16198107  0.12017897  0.39093970    -0.12300
C254        C  0.17498245  0.14087262  0.42235988     0.05000
C255        C  0.12298320  0.10261097  0.33562285     0.27400
C256        C  0.08917742  0.07875640  0.34360389    -0.13000
C257        C  0.06563649  0.05662382  0.31576887     0.05500
C258        C  0.07342330  0.05891822  0.27846543    -0.09000
C259        C  0.11100447  0.08097914  0.27292964     0.06300
C260        C  0.13439291  0.10035014  0.30174730    -0.13400
Br261      Br  0.17962700  0.09064503  0.37935735    -0.05400
Br262      Br  0.17009985  0.22976674  0.39389697     0.00200
Br263      Br  0.02435552  0.01738611  0.32736359     0.00600
Br264      Br  0.18380926  0.12601375  0.29617128    -0.03800
Br265      Br  0.18369194  0.12055471  0.46377229     0.00700
Br266      Br  0.16065621  0.18647903  0.31735113    -0.03100
Br267      Br  0.07891645  0.07494589  0.39459718    -0.03900
Br268      Br  0.13866072  0.09806826  0.22860072     0.00000
C269        C  0.06374523  0.06366358  0.21316828     0.01500
C270        C  0.07888825  0.05804605  0.17967601     0.04300
C271        C  0.10289119  0.08592353  0.15820585    -0.11800
C272        C  0.10401043  0.11728971  0.15728339     0.23600
C273        C  0.08797001  0.12447451  0.18504342    -0.12300
C274        C  0.07551327  0.10196927  0.21562905     0.05000
C275        C  0.12649443  0.14387131  0.13000133     0.27400
C276        C  0.15861280  0.17203473  0.14065867    -0.13000
C277        C  0.18171708  0.19366161  0.11443643     0.05500
C278        C  0.17369696  0.18721534  0.07724706    -0.09000
C279        C  0.14173445  0.15967974  0.06638609     0.06300
C280        C  0.11853290  0.13772727  0.09241135    -0.13400
Br281      Br  0.09413634  0.17102429  0.18520576    -0.05400
Br282      Br  0.06062981  0.02533569  0.13953045     0.00200
Br283      Br  0.22468429  0.23232281  0.12954944     0.00600
Br284      Br  0.07741503  0.09722615  0.07570612    -0.03800
Br285      Br  0.10183723  0.13600769  0.25422354     0.00700
Br286      Br  0.14060986  0.08579526  0.13539801    -0.03100
Br287      Br  0.17315248  0.17959214  0.19076020    -0.03900
Br288      Br  0.13023752  0.15133590  0.01543512     0.00000
O289        O  0.22261245  0.20179754  0.54098137    -0.74300
O290        O  0.28608727  0.25439428  0.96651422    -0.74300
O291        O  0.28463351  0.26089578  0.53869174    -0.74400
O292        O  0.22431023  0.19561822  0.96763409    -0.74400
O293        O  0.19849265  0.22590721  0.96154107    -0.74400
O294        O  0.25879188  0.29126312  0.53278244    -0.74400
O295        O  0.26047774  0.28506345  0.95987504    -0.74300
O296        O  0.19711416  0.23258551  0.53418963    -0.74400
Ni297      Ni  0.25526766  0.22691187  0.50371982     1.25400
Ni298      Ni  0.22777438  0.25985336  0.99684363     1.25400
C299        C  0.19928696  0.20837268  0.54964592     0.87900
C300        C  0.28422920  0.27904234  0.95158420     0.87800
C301        C  0.28215364  0.28738312  0.54694157     0.87800
C302        C  0.20137773  0.19978382  0.95274265     0.88000
O303        O  0.47280862  0.26634010  0.53662382    -0.74300
O304        O  0.48017649  0.20278502  0.97156242    -0.74300
O305        O  0.47315036  0.20659935  0.54545610    -0.74400
O306        O  0.47924436  0.26231390  0.96414823    -0.74400
O307        O  0.03486241  0.29400773  0.97200059    -0.74400
O308        O  0.02957474  0.23529050  0.55117175    -0.74400
O309        O  0.03604732  0.23432577  0.97681013    -0.74300
O310        O  0.02899650  0.29565216  0.54589507    -0.74400
Ni311      Ni  0.47428352  0.23317897  0.00418803     1.25400
Ni312      Ni  0.03391073  0.26542038  0.01154506     1.25400
C313        C  0.99971583  0.29145047  0.55219482     0.87900
C314        C  0.00951091  0.20915069  0.96196967     0.87800
C315        C  0.00040000  0.21189079  0.56228498     0.87800
C316        C  0.00777116  0.28766547  0.95501351     0.88000
O317        O  0.24132351  0.04237284  0.96302622    -0.74300
O318        O  0.30749941  0.04921210  0.53277063    -0.74300
O319        O  0.30243101  0.04834991  0.95863431    -0.74400
O320        O  0.24456198  0.04337226  0.53692855    -0.74400
O321        O  0.21987844  0.48517711  0.53448670    -0.74400
O322        O  0.27960320  0.48852958  0.95939035    -0.74400
O323        O  0.28134591  0.48823107  0.53238615    -0.74300
O324        O  0.21954002  0.48500168  0.96116993    -0.74400
Ni325      Ni  0.27497386  0.04803639  0.99808535     1.25400
Ni326      Ni  0.24922246  0.48454672  0.99713602     1.25400
C327        C  0.21962859  0.01229270  0.95032301     0.87900
C328        C  0.30628797  0.02143806  0.54354616     0.87800
C329        C  0.29976766  0.02046022  0.94529633     0.87800
C330        C  0.22159077  0.01370723  0.54818699     0.88000
C331        C  0.49703539  0.45048816  0.75446781    -0.02400
C332        C  0.50136302  0.04072125  0.75449767    -0.02400
C333        C  0.04224629  0.03572074  0.74804896    -0.02400
C334        C  0.04086666  0.99052839  0.75045597    -0.02400
C335        C  0.45590927  0.99860064  0.75163852    -0.02400
C336        C  0.45284774  0.45134952  0.75351112    -0.02400
C337        C  0.33236630  0.02312646  0.56882485     0.01500
C338        C  0.35413787  0.50810805  0.55743212     0.04300
C339        C  0.37671680  0.50642447  0.58248972    -0.11800
C340        C  0.37440975  0.01477782  0.62085470     0.23600
C341        C  0.35160454  0.02654138  0.63113305    -0.12300
C342        C  0.33245143  0.03232468  0.60514292     0.05000
C343        C  0.39383437  0.00648066  0.64960382     0.27400
C344        C  0.37833361  0.47627399  0.67216882    -0.13000
C345        C  0.39588528  0.47306154  0.70371254     0.05500
C346        C  0.43248660  0.99479674  0.71121186    -0.09000
C347        C  0.44621758  0.01308643  0.67739411     0.06300
C348        C  0.42927501  0.02535934  0.65374487    -0.13400
Br349      Br  0.34282337  0.03332092  0.68037643    -0.05400
Br350      Br  0.35437036  0.49640326  0.50678965     0.00200
Br351      Br  0.35976979  0.45147458  0.73785602     0.00600
Br352      Br  0.45337620  0.06032816  0.61773687    -0.03800
Br353      Br  0.30463173  0.05172736  0.61922256     0.00700
Br354      Br  0.40912984  0.49531807  0.56244075    -0.03100
Br355      Br  0.32937114  0.44725813  0.66329841    -0.03900
Br356      Br  0.44820361  0.98763556  0.63564116     0.00000
C357        C  0.31879852  0.02144661  0.91189174     0.01500
C358        C  0.34882043  0.05194820  0.90169978     0.04300
C359        C  0.36560122  0.05192270  0.86978009    -0.11800
C360        C  0.35707852  0.02051107  0.85190452     0.23600
C361        C  0.32500026  0.48657265  0.85969634    -0.12300
C362        C  0.30529344  0.48849994  0.88802001     0.05000
C363        C  0.38275492  0.01815109  0.82816988     0.27400
C364        C  0.38262786  0.02142582  0.79129732    -0.13000
C365        C  0.40814257  0.02090909  0.76898877     0.05500
C366        C  0.43151982  0.00821311  0.78059331    -0.09000
C367        C  0.43132099  0.50453610  0.81985816     0.06300
C368        C  0.40850042  0.50989764  0.84267540    -0.13400
Br369      Br  0.30546094  0.44571743  0.82891088    -0.05400
Br370      Br  0.36927935  0.09378308  0.93124970     0.00200
Br371      Br  0.40668273  0.04353683  0.72532820     0.00600
Br372      Br  0.40750394  0.50683851  0.89579507    -0.03800
Br373      Br  0.25824422  0.45236344  0.89088497     0.00700
Br374      Br  0.39427822  0.09495620  0.84591414    -0.03100
Br375      Br  0.34559687  0.02709634  0.77279527    -0.03900
Br376      Br  0.45544768  0.49109490  0.84979617     0.00000
C377        C  0.19518460  0.00819725  0.92165565     0.01500
C378        C  0.16294777  0.48766506  0.92758614     0.04300
C379        C  0.13932404  0.48280802  0.90056267    -0.11800
C380        C  0.14778423  0.99580581  0.86523420     0.23600
C381        C  0.18270986  0.01958678  0.86053893    -0.12300
C382        C  0.20614574  0.02626619  0.88887830     0.05000
C383        C  0.12161934  0.99227625  0.83745895     0.27400
C384        C  0.11782416  0.47685009  0.80897706    -0.13000
C385        C  0.09389929  0.47408299  0.78097030     0.05500
C386        C  0.06699646  0.98515862  0.78372459    -0.09000
C387        C  0.07185080  0.99599633  0.82200619     0.06300
C388        C  0.10174707  0.00706470  0.84377214    -0.13400
Br389      Br  0.19937411  0.04211352  0.81496199    -0.05400
Br390      Br  0.14747165  0.46354620  0.97301785     0.00200
Br391      Br  0.11244052  0.46182647  0.74017135     0.00600
Br392      Br  0.10590485  0.02461360  0.89361201    -0.03800
Br393      Br  0.25346192  0.05969877  0.88226182     0.00700
Br394      Br  0.09286250  0.44959919  0.91004431    -0.03100
Br395      Br  0.14728348  0.45602695  0.80644412    -0.03900
Br396      Br  0.04362061  0.96393141  0.85715100     0.00000
C397        C  0.06922497  0.99340956  0.71577602     0.01500
C398        C  0.06628298  0.47266205  0.68317942     0.04300
C399        C  0.08848255  0.48009394  0.65225410    -0.11800
C400        C  0.11997542  0.00450513  0.65452382     0.23600
C401        C  0.13032148  0.02398585  0.68705406    -0.12300
C402        C  0.10715910  0.01880182  0.71679733     0.05000
C403        C  0.14561271  0.00657034  0.62567898     0.27400
C404        C  0.16867060  0.49424384  0.63255110    -0.13000
C405        C  0.19180783  0.49460316  0.60687642     0.05500
C406        C  0.19588973  0.01153865  0.57489192    -0.09000
C407        C  0.17416950  0.02411761  0.56605715     0.06300
C408        C  0.14835891  0.02036839  0.59011806    -0.13400
Br409      Br  0.17934870  0.05672695  0.69036252    -0.05400
Br410      Br  0.05912575  0.42687403  0.68277650     0.00200
Br411      Br  0.21646218  0.47109685  0.61698083     0.00600
Br412      Br  0.11548337  0.03071090  0.57010342    -0.03800
Br413      Br  0.13748284  0.03611281  0.75997647     0.00700
Br414      Br  0.07453288  0.45340378  0.60609612    -0.03100
Br415      Br  0.16632922  0.47309583  0.67787860    -0.03900
Br416      Br  0.17855519  0.04476649  0.51921282     0.00000
C417        C  0.99221112  0.42452565  0.72000245     0.01500
C418        C  0.98480775  0.38795178  0.71833938     0.04300
C419        C  0.98770471  0.37245359  0.68520048    -0.11800
C420        C  0.98889872  0.38670598  0.65086526     0.23600
C421        C  0.49435023  0.42137801  0.65154909    -0.12300
C422        C  0.49588781  0.43867458  0.68532626     0.05000
C423        C  0.98329570  0.36355328  0.61696217     0.27400
C424        C  0.00737675  0.37464149  0.58882217    -0.13000
C425        C  0.01754817  0.35204083  0.57462876     0.05500
C426        C  0.99566017  0.31591646  0.57665130    -0.09000
C427        C  0.46626533  0.30344252  0.59802754     0.06300
C428        C  0.45980856  0.32680328  0.61770567    -0.13400
Br429      Br  0.49947346  0.44748561  0.60903360    -0.05400
Br430      Br  0.96942341  0.35162824  0.75551866     0.00200
Br431      Br  0.05821629  0.37181295  0.54620308     0.00600
Br432      Br  0.42071485  0.30602199  0.64856787    -0.03800
Br433      Br  0.50000382  0.48264093  0.68561377     0.00700
Br434      Br  0.00128435  0.33727934  0.68725317    -0.03100
Br435      Br  0.00231198  0.39913334  0.54922208    -0.03900
Br436      Br  0.43832192  0.25399873  0.60580006     0.00000
C437        C  0.00069264  0.42603252  0.78875155     0.01500
C438        C  0.47626572  0.40686736  0.81726122     0.04300
C439        C  0.47462337  0.37794204  0.83587747    -0.11800
C440        C  0.00375594  0.37731441  0.84319724     0.23600
C441        C  0.03158038  0.39935662  0.82332504    -0.12300
C442        C  0.02745822  0.41613720  0.79239858     0.05000
C443        C  0.00533034  0.35390492  0.87169797     0.27400
C444        C  0.00120495  0.35931521  0.90876763    -0.13000
C445        C  0.99957411  0.33600762  0.93496707     0.05500
C446        C  0.00881717  0.31124618  0.92630391    -0.09000
C447        C  0.51740861  0.30835963  0.89035114     0.06300
C448        C  0.51247111  0.32701822  0.86264336    -0.13400
Br449      Br  0.07288905  0.39950296  0.83580191    -0.05400
Br450      Br  0.46775459  0.42933492  0.85603873     0.00200
Br451      Br  0.98321930  0.33708509  0.98255997     0.00600
Br452      Br  0.51443725  0.31480809  0.81267583    -0.03800
Br453      Br  0.04568941  0.39764394  0.75815252     0.00700
Br454      Br  0.43477439  0.34101248  0.85709318    -0.03100
Br455      Br  0.00020911  0.39983884  0.92479705    -0.03900
Br456      Br  0.53697770  0.28009283  0.87915651     0.00000
C457        C  0.01351999  0.18863764  0.93245832     0.01500
C458        C  0.03610244  0.17630934  0.93687229     0.04300
C459        C  0.04187793  0.15908593  0.90793324    -0.11800
C460        C  0.02548060  0.15417527  0.87405319     0.23600
C461        C  0.50617540  0.17023947  0.86895778    -0.12300
C462        C  0.49817776  0.18506267  0.89851046     0.05000
C463        C  0.02260769  0.12683767  0.84727536     0.27400
C464        C  0.04692407  0.13229029  0.82206712    -0.13000
C465        C  0.03718978  0.10893989  0.79113014     0.05500
C466        C  0.51230465  0.07057189  0.79206092    -0.09000
C467        C  0.49428676  0.06501574  0.82705234     0.06300
C468        C  0.49595055  0.09258854  0.85026602    -0.13400
Br469      Br  0.49218777  0.17376420  0.82088077    -0.05400
Br470      Br  0.05708604  0.18030771  0.98361959     0.00200
Br471      Br  0.04067936  0.14348162  0.75636398     0.00600
Br472      Br  0.45767287  0.08818291  0.87815765    -0.03800
Br473      Br  0.46481431  0.19878167  0.89180991     0.00700
Br474      Br  0.07441225  0.14491593  0.91454770    -0.03100
Br475      Br  0.08631967  0.17877955  0.82425384    -0.03900
Br476      Br  0.50880302  0.06310969  0.87734324     0.00000
C477        C  0.99688807  0.19096057  0.59564220     0.01500
C478        C  0.02079780  0.20485603  0.62481731     0.04300
C479        C  0.01643751  0.18513860  0.65625113    -0.11800
C480        C  0.98920729  0.15082064  0.65874194     0.23600
C481        C  0.46256138  0.13975135  0.63328755    -0.12300
C482        C  0.46710095  0.15781219  0.60081431     0.05000
C483        C  0.99159116  0.12443755  0.68259560     0.27400
C484        C  0.01057386  0.10983884  0.67143296    -0.13000
C485        C  0.00916510  0.08085830  0.68985423     0.05500
C486        C  0.49563731  0.06870504  0.72638509    -0.09000
C487        C  0.47715950  0.08751406  0.73694795     0.06300
C488        C  0.47403484  0.11258369  0.71472962    -0.13400
Br489      Br  0.41779842  0.10439884  0.64583995    -0.05400
Br490      Br  0.05998972  0.25078321  0.62292178     0.00200
Br491      Br  0.01634830  0.05590663  0.65400839     0.00600
Br492      Br  0.45040125  0.13713526  0.72976969    -0.03800
Br493      Br  0.43395507  0.13411931  0.56257501     0.00700
Br494      Br  0.04448097  0.20682686  0.69836530    -0.03100
Br495      Br  0.03357734  0.12716511  0.62485570    -0.03900
Br496      Br  0.46035641  0.09202610  0.78371024     0.00000
C497        C  0.42196056  0.42575567  0.71848050     0.01500
C498        C  0.38330076  0.40383851  0.72035235     0.04300
C499        C  0.35962401  0.39110436  0.68960560    -0.11800
C500        C  0.37038624  0.39274822  0.65454482     0.23600
C501        C  0.40538413  0.41073603  0.64958641    -0.12300
C502        C  0.42857501  0.42096624  0.68060549     0.05000
C503        C  0.34720078  0.36528353  0.62667904     0.27400
C504        C  0.33646884  0.32962140  0.63146082    -0.13000
C505        C  0.31790717  0.30471075  0.60405067     0.05500
C506        C  0.30647173  0.31407299  0.57307223    -0.09000
C507        C  0.31716990  0.34928370  0.56793359     0.06300
C508        C  0.33661588  0.37427319  0.59477726    -0.13400
Br509      Br  0.41889962  0.41191128  0.59848737    -0.05400
Br510      Br  0.35208624  0.37776724  0.75812598     0.00200
Br511      Br  0.30917759  0.25788712  0.60944186     0.00600
Br512      Br  0.34666164  0.42038079  0.58774450    -0.03800
Br513      Br  0.42204867  0.37612085  0.66865828     0.00700
Br514      Br  0.30954481  0.36814606  0.69204633    -0.03100
Br515      Br  0.34310239  0.31254910  0.67668235    -0.03900
Br516      Br  0.30821589  0.36439145  0.52236143     0.00000
C517        C  0.42629953  0.42318408  0.78709869     0.01500
C518        C  0.41284372  0.38492970  0.78784897     0.04300
C519        C  0.39038073  0.36145872  0.81541125    -0.11800
C520        C  0.38379976  0.37386998  0.84750449     0.23600
C521        C  0.39570550  0.40899186  0.84913210    -0.12300
C522        C  0.40830804  0.42929508  0.81690475     0.05000
C523        C  0.35876823  0.34976808  0.87557236     0.27400
C524        C  0.32363291  0.33191340  0.86767513    -0.13000
C525        C  0.30032924  0.30621337  0.89061550     0.05500
C526        C  0.31028394  0.30169446  0.92506027    -0.09000
C527        C  0.34466025  0.32183659  0.93531010     0.06300
C528        C  0.36886479  0.34532685  0.91069255    -0.13400
Br529      Br  0.38734428  0.42635280  0.89444461    -0.05400
Br530      Br  0.40794803  0.35672716  0.74728973     0.00200
Br531      Br  0.25495781  0.27557241  0.87338110     0.00600
Br532      Br  0.41449959  0.37416200  0.92814010    -0.04400
Br533      Br  0.37056176  0.43573747  0.81417965     0.00700
Br534      Br  0.36380311  0.31071423  0.80871181    -0.03100
Br535      Br  0.30542002  0.34577272  0.82907930    -0.03900
Br536      Br  0.35820427  0.31878271  0.98411444     0.00000
C537        C  0.17928320  0.17463508  0.92394598     0.01500
C538        C  0.16788024  0.18561918  0.89402482     0.04300
C539        C  0.15427859  0.16395120  0.86306957    -0.11800
C540        C  0.14655123  0.12917753  0.86364193     0.23600
C541        C  0.16161291  0.12015379  0.89128235    -0.12300
C542        C  0.17461558  0.14090380  0.92265581     0.05000
C543        C  0.12274444  0.10255977  0.83586218     0.27400
C544        C  0.08892473  0.07873216  0.84380039    -0.13000
C545        C  0.06543143  0.05656619  0.81593966     0.05500
C546        C  0.07328137  0.05885429  0.77864210    -0.09000
C547        C  0.11087539  0.08090429  0.77317873     0.06300
C548        C  0.13421256  0.10023651  0.80204426    -0.13400
Br549      Br  0.17913910  0.09048603  0.87993891    -0.05400
Br550      Br  0.16984616  0.22979791  0.89392504     0.00200
Br551      Br  0.02414431  0.01730752  0.82750205     0.00600
Br552      Br  0.18364052  0.12576353  0.79662215    -0.03800
Br553      Br  0.18334929  0.12068384  0.96415362     0.00700
Br554      Br  0.16058099  0.18643090  0.81746079    -0.03100
Br555      Br  0.07862105  0.07502496  0.89479695    -0.03900
Br556      Br  0.13864137  0.09806390  0.72890728     0.00000
C557        C  0.06372962  0.06365295  0.71329711     0.01500
C558        C  0.07892555  0.05803667  0.67985224     0.04300
C559        C  0.10301530  0.08590826  0.65843087    -0.11800
C560        C  0.10419774  0.11730327  0.65745526     0.23600
C561        C  0.08809171  0.12449132  0.68514675    -0.12300
C562        C  0.07553607  0.10197376  0.71573247     0.05000
C563        C  0.12674802  0.14386610  0.63015547     0.27400
C564        C  0.15886876  0.17205078  0.64079587    -0.13000
C565        C  0.18197718  0.19367666  0.61455403     0.05500
C566        C  0.17398218  0.18717479  0.57735493    -0.09000
C567        C  0.14203516  0.15960040  0.56651832     0.06300
C568        C  0.11881608  0.13768917  0.59256142    -0.13400
Br569      Br  0.09433832  0.17106890  0.68525962    -0.05400
Br570      Br  0.06066102  0.02540403  0.63964805     0.00200
Br571      Br  0.22488725  0.23244234  0.62965392     0.00600
Br572      Br  0.07766738  0.09722399  0.57588395    -0.03800
Br573      Br  0.10183610  0.13600207  0.75435404     0.00700
Br574      Br  0.14080740  0.08576465  0.63585946    -0.03100
Br575      Br  0.17338898  0.17965311  0.69090608    -0.03900
Br576      Br  0.13057966  0.15116923  0.51556249     0.00000
O577        O  0.21811076  0.70381556  0.04082130    -0.74300
O578        O  0.28811152  0.76057337  0.47400088    -0.74300
O579        O  0.27989879  0.76269777  0.04563037    -0.74400
O580        O  0.22666932  0.70174504  0.46826969    -0.74400
O581        O  0.20072619  0.73151749  0.45987469    -0.74400
O582        O  0.25424566  0.79303028  0.03732918    -0.74400
O583        O  0.26257130  0.79104512  0.46502824    -0.74300
O584        O  0.19299866  0.73473602  0.03189482    -0.74400
Ni585      Ni  0.25404559  0.73087802  0.00752479     1.25400
Ni586      Ni  0.22672986  0.76388027  0.49810561     1.25400
C587        C  0.19420336  0.71006650  0.04741610     0.87900
C588        C  0.28696042  0.78548126  0.45884310     0.87800
C589        C  0.27649184  0.78866179  0.05351552     0.87800
C590        C  0.20436351  0.70573867  0.45164604     0.88000
O591        O  0.46849966  0.76447934  0.03646026    -0.74300
O592        O  0.47743371  0.70255576  0.47114939    -0.74300
O593        O  0.46940129  0.70498325  0.04452010    -0.74400
O594        O  0.47599347  0.76177619  0.46428373    -0.74400
O595        O  0.03166097  0.79445573  0.47354126    -0.74400
O596        O  0.02548526  0.73344946  0.05040320    -0.74400
O597        O  0.03352082  0.73511067  0.47656507    -0.74300
O598        O  0.02398837  0.79322766  0.04713739    -0.74400
Ni599      Ni  0.47105622  0.73239620  0.50399219     1.25400
Ni600      Ni  0.03077559  0.76531351  0.51221067     1.25400
C601        C  0.99464412  0.78899330  0.05293117     0.87900
C602        C  0.00720017  0.70969075  0.46157995     0.87800
C603        C  0.99627952  0.71002499  0.06131890     0.87800
C604        C  0.00473262  0.78776474  0.45606622     0.88000
O605        O  0.24448114  0.54313617  0.46300781    -0.74300
O606        O  0.30821438  0.54577087  0.03286186    -0.74300
O607        O  0.30419864  0.54610212  0.45883795    -0.74400
O608        O  0.24643204  0.54234712  0.03683532    -0.74400
O609        O  0.21988197  0.98608029  0.03566864    -0.74400
O610        O  0.27993662  0.99119552  0.46000720    -0.74400
O611        O  0.28239382  0.99169837  0.03284496    -0.74300
O612        O  0.21856219  0.98478865  0.46213282    -0.74400
Ni613      Ni  0.27694989  0.54660920  0.49817987     1.25400
Ni614      Ni  0.24935769  0.98638235  0.49797602     1.25400
C615        C  0.22210849  0.51364418  0.44981688     0.87900
C616        C  0.30581322  0.51742638  0.04338356     0.87800
C617        C  0.30037669  0.51782103  0.44510096     0.87800
C618        C  0.22258642  0.51287333  0.04754312     0.88000
C619        C  0.49392583  0.94939963  0.25496699    -0.02400
C620        C  0.50203047  0.54088297  0.25390651    -0.02400
C621        C  0.04397087  0.53727897  0.24779722    -0.02400
C622        C  0.04346164  0.49250608  0.25018861    -0.02400
C623        C  0.45715373  0.49769964  0.25074298    -0.02400
C624        C  0.45052775  0.95187713  0.25499845    -0.02400
C625        C  0.33116552  0.51830356  0.06896957     0.01500
C626        C  0.35436252  0.01149555  0.05735328     0.04300
C627        C  0.37616458  0.00859227  0.08257161    -0.11800
C628        C  0.37439987  0.51195370  0.12075838     0.23600
C629        C  0.35055488  0.52228006  0.13121233    -0.12300
C630        C  0.33065213  0.52698215  0.10533081     0.05000
C631        C  0.39436950  0.50436509  0.14929782     0.27400
C632        C  0.37684950  0.97873717  0.17320981    -0.13000
C633        C  0.39417710  0.97531427  0.20491567     0.05500
C634        C  0.43375357  0.49357977  0.21038022    -0.09000
C635        C  0.44729504  0.51245846  0.17687032     0.06300
C636        C  0.42973006  0.52429514  0.15368703    -0.13400
Br637      Br  0.34161407  0.52886152  0.18043643    -0.05400
Br638      Br  0.35427616  0.99955144  0.00669976     0.00200
Br639      Br  0.35810754  0.95542440  0.23948353     0.00600
Br640      Br  0.45308547  0.55968158  0.11796137    -0.03800
Br641      Br  0.30124239  0.54446642  0.11955077     0.00700
Br642      Br  0.40698015  0.99512818  0.06280044    -0.03100
Br643      Br  0.32764060  0.95124159  0.16500523    -0.03900
Br644      Br  0.45020075  0.48784590  0.13486576     0.00000
C645        C  0.31893977  0.51811714  0.41156697     0.01500
C646        C  0.34878139  0.54828350  0.40045886     0.04300
C647        C  0.36485513  0.54740461  0.36836006    -0.11800
C648        C  0.35670042  0.51549924  0.35199028     0.23600
C649        C  0.32496930  0.99153204  0.35861259    -0.12300
C650        C  0.30548732  0.99229294  0.38783507     0.05000
C651        C  0.38225321  0.51319467  0.32804479     0.27400
C652        C  0.38137496  0.51582536  0.29115033    -0.13000
C653        C  0.40757890  0.51708118  0.26874236     0.05500
C654        C  0.43209631  0.50582892  0.27999537    -0.09000
C655        C  0.43013449  0.00724019  0.32043382     0.06300
C656        C  0.40763085  0.01334881  0.34297384    -0.13400
Br657      Br  0.30506296  0.95252392  0.32523210    -0.05400
Br658      Br  0.36992918  0.59089321  0.42866067     0.00200
Br659      Br  0.40505990  0.53967107  0.22560029     0.00600
Br660      Br  0.40508331  0.00886809  0.39610100    -0.03800
Br661      Br  0.25932780  0.95442183  0.39192259     0.00700
Br662      Br  0.39085422  0.58936878  0.34175554    -0.03100
Br663      Br  0.34232317  0.51790091  0.27257667    -0.03900
Br664      Br  0.45259724  0.99261263  0.35098453     0.00000
C665        C  0.19782381  0.51121362  0.42197279     0.01500
C666        C  0.16090604  0.98300169  0.42568478     0.04300
C667        C  0.13769745  0.97607404  0.39736655    -0.11800
C668        C  0.14998389  0.50188913  0.36741006     0.23600
C669        C  0.18510252  0.52445515  0.36194486    -0.12300
C670        C  0.20878779  0.52968603  0.38945055     0.05000
C671        C  0.12417393  0.49775296  0.33897479     0.27400
C672        C  0.11387123  0.97074145  0.30688941    -0.13000
C673        C  0.08967368  0.96888201  0.27960303     0.05500
C674        C  0.06994232  0.48848970  0.28382553    -0.09000
C675        C  0.07361700  0.49899042  0.32202389     0.06300
C676        C  0.10331255  0.51150261  0.34426449    -0.13400
Br677      Br  0.20155614  0.54801930  0.31669237    -0.05400
Br678      Br  0.14496434  0.95954620  0.47133508     0.00200
Br679      Br  0.10684662  0.95622251  0.23779997     0.00600
Br680      Br  0.10570067  0.52961175  0.39337514    -0.03800
Br681      Br  0.25637517  0.56154900  0.38198675     0.00700
Br682      Br  0.09201181  0.93959015  0.40412019    -0.03100
Br683      Br  0.14265808  0.94930889  0.30274546    -0.03900
Br684      Br  0.04459820  0.46697341  0.35680850     0.00000
C685        C  0.07194968  0.49557152  0.21546208     0.01500
C686        C  0.06334118  0.97110441  0.18257292     0.04300
C687        C  0.08619364  0.97892961  0.15222952    -0.11800
C688        C  0.12208451  0.50636914  0.15366889     0.23600
C689        C  0.13239978  0.52707737  0.18538245    -0.12300
C690        C  0.10962491  0.52186184  0.21554640     0.05000
C691        C  0.14763757  0.50798084  0.12510606     0.27400
C692        C  0.16737444  0.99339508  0.13317287    -0.13000
C693        C  0.19169927  0.99552619  0.10805444     0.05500
C694        C  0.19708352  0.51131425  0.07418601    -0.09000
C695        C  0.17635511  0.52519962  0.06567044     0.06300
C696        C  0.15038551  0.52143910  0.08948628    -0.13400
Br697      Br  0.18102016  0.56138735  0.18710507    -0.05400
Br698      Br  0.05253742  0.92396386  0.18016904     0.00200
Br699      Br  0.21983582  0.97614059  0.11950670     0.00600
Br700      Br  0.11688462  0.53062698  0.06924666    -0.03800
Br701      Br  0.14064715  0.54034771  0.25801574     0.00700
Br702      Br  0.07230326  0.95410881  0.10537734    -0.03100
Br703      Br  0.16367018  0.96995885  0.17737664    -0.03900
Br704      Br  0.18235212  0.54790363  0.01984713     0.00000
C705        C  0.98755865  0.92256370  0.22024130     0.01500
C706        C  0.97795322  0.88519445  0.21874997     0.04300
C707        C  0.97940026  0.86876614  0.18536754    -0.11800
C708        C  0.98202678  0.88372651  0.15101088     0.23600
C709        C  0.48858339  0.91868877  0.15201509    -0.12300
C710        C  0.49143807  0.93665481  0.18570888     0.05000
C711        C  0.97831822  0.86200123  0.11653575     0.27400
C712        C  0.00575230  0.87267599  0.09257495    -0.13000
C713        C  0.01489801  0.84875660  0.08017551     0.05500
C714        C  0.99004524  0.81321347  0.07746540    -0.09000
C715        C  0.45840172  0.80205350  0.09437013     0.06300
C716        C  0.45267966  0.82595812  0.11411184    -0.13400
Br717      Br  0.49342785  0.94389362  0.10886199    -0.05400
Br718      Br  0.96259251  0.84978540  0.25744516     0.00200
Br719      Br  0.05935619  0.86744421  0.05968344     0.00600
Br720      Br  0.41021540  0.80690988  0.13885452    -0.03800
Br721      Br  0.49753535  0.98131283  0.18565363     0.00700
Br722      Br  0.98606600  0.82884810  0.18698419    -0.03100
Br723      Br  0.00742723  0.89975986  0.05188212    -0.03900
Br724      Br  0.42436149  0.75308440  0.09525494     0.00000
C725        C  0.99778446  0.92459866  0.28871972     0.01500
C726        C  0.47535340  0.90856184  0.31991371     0.04300
C727        C  0.47346165  0.88018961  0.33980653    -0.11800
C728        C  0.00165062  0.87682382  0.34379071     0.23600
C729        C  0.02786881  0.89533186  0.32047082    -0.12300
C730        C  0.02293766  0.91221244  0.29012975     0.05000
C731        C  0.00367978  0.85415399  0.37272613     0.27400
C732        C  0.00219997  0.86151724  0.40999406    -0.13000
C733        C  0.99947833  0.83789965  0.43633045     0.05500
C734        C  0.00608522  0.81130957  0.42741750    -0.09000
C735        C  0.51151829  0.80619885  0.39109359     0.06300
C736        C  0.50635895  0.82475482  0.36366814    -0.13400
Br737      Br  0.06755912  0.89063907  0.32823708    -0.05400
Br738      Br  0.46732596  0.93337272  0.35642462     0.00200
Br739      Br  0.98342769  0.83987311  0.48376146     0.00600
Br740      Br  0.50088177  0.80800905  0.31416335    -0.03800
Br741      Br  0.03891518  0.89297204  0.25390862     0.00700
Br742      Br  0.43581948  0.84842604  0.36844622    -0.03100
Br743      Br  0.00347459  0.90338510  0.42592805    -0.03900
Br744      Br  0.52772600  0.77525958  0.37887244     0.00000
C745        C  0.01145937  0.68928044  0.43200763     0.01500
C746        C  0.03529701  0.67852193  0.43591752     0.04300
C747        C  0.04105294  0.66112373  0.40710052    -0.11800
C748        C  0.02305085  0.65399090  0.37387055     0.23600
C749        C  0.50193030  0.66828677  0.36895826    -0.12300
C750        C  0.49411180  0.68336337  0.39845057     0.05000
C751        C  0.02097438  0.62676732  0.34716678     0.27400
C752        C  0.04517764  0.63299332  0.32146217    -0.13000
C753        C  0.03591005  0.60947330  0.29061481     0.05500
C754        C  0.51184415  0.57079929  0.29153715    -0.09000
C755        C  0.49351180  0.56492823  0.32658326     0.06300
C756        C  0.49447387  0.59226082  0.34969303    -0.13400
Br757      Br  0.48482565  0.66847225  0.32145184    -0.05400
Br758      Br  0.05794509  0.68464126  0.48213446     0.00200
Br759      Br  0.03864467  0.64303747  0.25506173     0.00600
Br760      Br  0.45540575  0.58692363  0.37678310    -0.03800
Br761      Br  0.45847333  0.69399910  0.39256276     0.00700
Br762      Br  0.07604477  0.65041200  0.41302193    -0.03100
Br763      Br  0.08329289  0.68042361  0.32275412    -0.03900
Br764      Br  0.50745533  0.56334592  0.37753544     0.00000
C765        C  0.99294621  0.68913060  0.09449313     0.01500
C766        C  0.01565030  0.70393759  0.12452172     0.04300
C767        C  0.01253741  0.68371820  0.15518826    -0.11800
C768        C  0.98647072  0.64866755  0.15693154     0.23600
C769        C  0.46005092  0.63708483  0.13092377    -0.12300
C770        C  0.46459502  0.65526137  0.09854831     0.05000
C771        C  0.98975746  0.62280128  0.18102582     0.27400
C772        C  0.01016890  0.60961893  0.17049167    -0.13000
C773        C  0.00955961  0.58095972  0.18894798     0.05500
C774        C  0.49551505  0.56813366  0.22527078    -0.09000
C775        C  0.47570105  0.58564125  0.23526800     0.06300
C776        C  0.47162203  0.60999478  0.21276620    -0.13400
Br777      Br  0.41501302  0.60195762  0.14290063    -0.05400
Br778      Br  0.05014439  0.75239990  0.12528262     0.00200
Br779      Br  0.01769124  0.55672661  0.15290693     0.00600
Br780      Br  0.44618022  0.63271135  0.22734072    -0.03800
Br781      Br  0.43279488  0.63138088  0.05923437     0.00700
Br782      Br  0.04070261  0.70546808  0.19715407    -0.03100
Br783      Br  0.03355877  0.62783947  0.12424419    -0.03900
Br784      Br  0.45849448  0.58959499  0.28200342     0.00000
C785        C  0.41890358  0.92668749  0.22097557     0.01500
C786        C  0.38041621  0.90637490  0.22414591     0.04300
C787        C  0.35603184  0.89417654  0.19428399    -0.11800
C788        C  0.36575006  0.89439168  0.15910421     0.23600
C789        C  0.40054341  0.91098432  0.15279000    -0.12300
C790        C  0.42451059  0.92122840  0.18300957     0.05000
C791        C  0.34124156  0.86656372  0.13271061     0.27400
C792        C  0.32865472  0.83074169  0.13925099    -0.13000
C793        C  0.30884197  0.80529892  0.11281321     0.05500
C794        C  0.29925293  0.81486922  0.08063003    -0.09000
C795        C  0.31143115  0.85016209  0.07415811     0.06300
C796        C  0.33129909  0.87540537  0.10037177    -0.13400
Br797      Br  0.41249377  0.91070270  0.10116591    -0.05400
Br798      Br  0.34999579  0.88028124  0.26232953     0.00200
Br799      Br  0.29560103  0.75741600  0.12117553     0.00600
Br800      Br  0.34378234  0.92196098  0.09125467    -0.03800
Br801      Br  0.41626915  0.87575746  0.17086897     0.00700
Br802      Br  0.30624558  0.87378668  0.19842593    -0.03100
Br803      Br  0.33542385  0.81461563  0.18508914    -0.03900
Br804      Br  0.30422612  0.86507392  0.02756695     0.00000
C805        C  0.42437566  0.92422426  0.28897663     0.01500
C806        C  0.41172749  0.88616573  0.29010009     0.04300
C807        C  0.39135795  0.86296868  0.31878385    -0.11800
C808        C  0.38362125  0.87538007  0.35025774     0.23600
C809        C  0.39327818  0.91007540  0.35078563    -0.12300
C810        C  0.40566177  0.93006826  0.31838010     0.05000
C811        C  0.35976968  0.85127966  0.37914164     0.27400
C812        C  0.32497122  0.82871509  0.37053969    -0.13000
C813        C  0.30242537  0.80599727  0.39615383     0.05500
C814        C  0.31282992  0.80707368  0.43200051    -0.09000
C815        C  0.34676612  0.83013746  0.44199230     0.06300
C816        C  0.37025944  0.85210744  0.41592404    -0.13400
Br817      Br  0.38176082  0.92711873  0.39458041    -0.05400
Br818      Br  0.40256316  0.85697850  0.24904730     0.00200
Br819      Br  0.25664500  0.77217835  0.38182069     0.00600
Br820      Br  0.41540750  0.88515695  0.43314838    -0.04400
Br821      Br  0.36967430  0.93958267  0.31524501     0.00700
Br822      Br  0.37047404  0.81204624  0.31503929    -0.03100
Br823      Br  0.30543326  0.82966781  0.32504801    -0.03900
Br824      Br  0.36051710  0.83284622  0.49205214     0.00000
C825        C  0.18339065  0.68024778  0.42226605     0.01500
C826        C  0.16944544  0.68969546  0.39330537     0.04300
C827        C  0.15542288  0.66754609  0.36270748    -0.11800
C828        C  0.14921947  0.63333670  0.36286238     0.23600
C829        C  0.16588715  0.62542595  0.38982954    -0.12300
C830        C  0.18060144  0.64722835  0.42039509     0.05000
C831        C  0.12528199  0.60632241  0.33516503     0.27400
C832        C  0.09126500  0.58334136  0.34290577    -0.13000
C833        C  0.06784993  0.56041121  0.31540277     0.05500
C834        C  0.07538118  0.56143033  0.27814079    -0.09000
C835        C  0.11300496  0.58388665  0.27251292     0.06300
C836        C  0.13652077  0.60337945  0.30136176    -0.13400
Br837      Br  0.18033808  0.59315634  0.37934888    -0.05400
Br838      Br  0.16793763  0.73211526  0.39404588     0.00200
Br839      Br  0.02736592  0.52141242  0.32780503     0.00600
Br840      Br  0.18584059  0.62888545  0.29576116    -0.03800
Br841      Br  0.19448533  0.62917210  0.46012516     0.00700
Br842      Br  0.15845460  0.68893303  0.31723705    -0.03100
Br843      Br  0.08045559  0.58186191  0.39350775    -0.03900
Br844      Br  0.14032329  0.60206275  0.22799160     0.00000
C845        C  0.06490092  0.56524810  0.21304913     0.01500
C846        C  0.08033205  0.56009467  0.17956714     0.04300
C847        C  0.10347267  0.58809131  0.15766291    -0.11800
C848        C  0.10336405  0.61882240  0.15661629     0.23600
C849        C  0.08777963  0.62586638  0.18503180    -0.12300
C850        C  0.07589171  0.60332609  0.21559155     0.05000
C851        C  0.12406127  0.64506004  0.12831427     0.27400
C852        C  0.15479987  0.67549804  0.13811638    -0.13000
C853        C  0.17545190  0.69838816  0.11137128     0.05500
C854        C  0.16842735  0.68927065  0.07451486    -0.09000
C855        C  0.13805946  0.65931405  0.06413358     0.06300
C856        C  0.11580853  0.63732246  0.09080884    -0.13400
Br857      Br  0.09283900  0.67200273  0.18563684    -0.05400
Br858      Br  0.06297987  0.52665674  0.14018971     0.00200
Br859      Br  0.21293418  0.74317354  0.12511442     0.00600
Br860      Br  0.07598776  0.59491809  0.07514519    -0.03800
Br861      Br  0.10091973  0.63722371  0.25470626     0.00700
Br862      Br  0.14087038  0.58860861  0.13306594    -0.03100
Br863      Br  0.17196276  0.68429914  0.18728159    -0.03900
Br864      Br  0.12718213  0.64864418  0.01320901     0.00000
O865        O  0.21793136  0.70407454  0.54080997    -0.74300
O866        O  0.28834098  0.76039883  0.97405116    -0.74300
O867        O  0.27972218  0.76297549  0.54554154    -0.74400
O868        O  0.22689009  0.70160381  0.96824596    -0.74400
O869        O  0.20095820  0.73139427  0.95991416    -0.74400
O870        O  0.25408515  0.79331279  0.53722659    -0.74400
O871        O  0.26280197  0.79087512  0.96512299    -0.74300
O872        O  0.19280472  0.73497523  0.53183688    -0.74400
Ni873      Ni  0.25384346  0.73109472  0.50749357     1.25400
Ni874      Ni  0.22693688  0.76367580  0.99818410     1.25400
C875        C  0.19401351  0.71031464  0.54737095     0.87900
C876        C  0.28718430  0.78530600  0.95889208     0.87800
C877        C  0.27634680  0.78896100  0.55341371     0.87800
C878        C  0.20461889  0.70564814  0.95161426     0.88000
O879        O  0.46868602  0.76473982  0.53645431    -0.74300
O880        O  0.47712918  0.70242651  0.97080180    -0.74300
O881        O  0.46984218  0.70540610  0.54482380    -0.74400
O882        O  0.47598042  0.76183479  0.96423714    -0.74400
O883        O  0.03183539  0.79432840  0.97366120    -0.74400
O884        O  0.02576485  0.73403348  0.55060751    -0.74400
O885        O  0.03334676  0.73478597  0.97642896    -0.74300
O886        O  0.02394428  0.79366262  0.54699899    -0.74400
Ni887      Ni  0.47081811  0.73221447  0.00380659     1.25400
Ni888      Ni  0.03071157  0.76493756  0.01218910     1.25400
C889        C  0.99455812  0.78935391  0.55268838     0.87900
C890        C  0.00698418  0.70953749  0.96131409     0.87800
C891        C  0.99661188  0.71057651  0.56162574     0.87800
C892        C  0.00496628  0.78787870  0.95621778     0.88000
O893        O  0.24419867  0.54258589  0.96327256    -0.74300
O894        O  0.30831211  0.54598489  0.53276569    -0.74300
O895        O  0.30403388  0.54580305  0.95894870    -0.74400
O896        O  0.24655603  0.54283707  0.53662179    -0.74400
O897        O  0.21984983  0.98582613  0.53581433    -0.74400
O898        O  0.27985559  0.99130218  0.95983821    -0.74400
O899        O  0.28241526  0.99159492  0.53305279    -0.74300
O900        O  0.21855098  0.98501166  0.96202975    -0.74400
Ni901      Ni  0.27677121  0.54621149  0.99833646     1.25400
Ni902      Ni  0.24933593  0.98655867  0.99782206     1.25400
C903        C  0.22181575  0.51307144  0.95015417     0.87900
C904        C  0.30582342  0.51758528  0.54327494     0.87800
C905        C  0.30029884  0.51756665  0.94517980     0.87800
C906        C  0.22260414  0.51338211  0.54725485     0.88000
C907        C  0.49405203  0.94944044  0.75490431    -0.02400
C908        C  0.50219340  0.54086293  0.75381675    -0.02400
C909        C  0.04402216  0.53749280  0.74780967    -0.02400
C910        C  0.04358395  0.49277500  0.75035012    -0.02400
C911        C  0.45728882  0.49769751  0.75061959    -0.02400
C912        C  0.45066195  0.95193109  0.75501984    -0.02400
C913        C  0.33119937  0.51833682  0.56881031     0.01500
C914        C  0.35454855  0.01183058  0.55759502     0.04300
C915        C  0.37632237  0.00889080  0.58281606    -0.11800
C916        C  0.37461662  0.51207580  0.62052285     0.23600
C917        C  0.35083148  0.52247598  0.63100179    -0.12300
C918        C  0.33092207  0.52722808  0.60515143     0.05000
C919        C  0.39459638  0.50444940  0.64906178     0.27400
C920        C  0.37697387  0.97895496  0.67342752    -0.13000
C921        C  0.39431521  0.97543756  0.70506685     0.05500
C922        C  0.43393222  0.49360492  0.71021447    -0.09000
C923        C  0.44749598  0.51247887  0.67669675     0.06300
C924        C  0.42996213  0.52434450  0.65348314    -0.13400
Br925      Br  0.34192763  0.52901456  0.68024308    -0.05400
Br926      Br  0.35484480  0.00045519  0.50682995     0.00200
Br927      Br  0.35827395  0.95543420  0.73965302     0.00600
Br928      Br  0.45337737  0.55973950  0.61778968    -0.03800
Br929      Br  0.30171501  0.54494455  0.61942011     0.00700
Br930      Br  0.40707989  0.99536251  0.56302543    -0.03100
Br931      Br  0.32772941  0.95159158  0.66535186    -0.03900
Br932      Br  0.45039021  0.48783429  0.63470004     0.00000
C933        C  0.31898975  0.51799630  0.91167841     0.01500
C934        C  0.34895968  0.54816406  0.90084211     0.04300
C935        C  0.36508937  0.54748634  0.86869076    -0.11800
C936        C  0.35690608  0.51567442  0.85201892     0.23600
C937        C  0.32500140  0.99139213  0.85872892    -0.12300
C938        C  0.30543325  0.99229913  0.88777355     0.05000
C939        C  0.38248097  0.51340603  0.82799120     0.27400
C940        C  0.38165996  0.51613380  0.79108364    -0.13000
C941        C  0.40777490  0.51720830  0.76861887     0.05500
C942        C  0.43221639  0.50584544  0.77984944    -0.09000
C943        C  0.43031618  0.00722672  0.82065257     0.06300
C944        C  0.40778628  0.01330814  0.84318622    -0.13400
Br945      Br  0.30516499  0.95219713  0.82558684    -0.05400
Br946      Br  0.37020387  0.59048090  0.92953519     0.00200
Br947      Br  0.40536533  0.53978408  0.72540477     0.00600
Br948      Br  0.40529656  0.00895533  0.89633153    -0.03800
Br949      Br  0.25914353  0.95464188  0.89165332     0.00700
Br950      Br  0.39098846  0.58964380  0.84236207    -0.03100
Br951      Br  0.34285211  0.51867544  0.77257996    -0.03900
Br952      Br  0.45276176  0.99259649  0.85129178     0.00000
C953        C  0.19753781  0.51067636  0.92235709     0.01500
C954        C  0.16087772  0.98317066  0.92569872     0.04300
C955        C  0.13762999  0.97630525  0.89745021    -0.11800
C956        C  0.14978198  0.50176831  0.86791877     0.23600
C957        C  0.18492698  0.52406860  0.86237543    -0.12300
C958        C  0.20857502  0.52908387  0.88981452     0.05000
C959        C  0.12408538  0.49779388  0.83943325     0.27400
C960        C  0.11387843  0.97096993  0.80702785    -0.13000
C961        C  0.08958682  0.96890659  0.77974960     0.05500
C962        C  0.07009893  0.48886197  0.78407418    -0.09000
C963        C  0.07375699  0.49938194  0.82231066     0.06300
C964        C  0.10341391  0.51177404  0.84460468    -0.13400
Br965      Br  0.20145745  0.54748222  0.81704974    -0.05400
Br966      Br  0.14500601  0.95941717  0.97121050     0.00200
Br967      Br  0.10663199  0.95607533  0.73796778     0.00600
Br968      Br  0.10600648  0.53014517  0.89363877    -0.03800
Br969      Br  0.25623261  0.56050545  0.88221741     0.00700
Br970      Br  0.09195142  0.93976960  0.90419727    -0.03100
Br971      Br  0.14296614  0.94988104  0.80285587    -0.03900
Br972      Br  0.04456773  0.46759786  0.85722736     0.00000
C973        C  0.07205870  0.49577165  0.71557130     0.01500
C974        C  0.06324043  0.97109842  0.68264714     0.04300
C975        C  0.08610644  0.97890396  0.65232773    -0.11800
C976        C  0.12202423  0.50661484  0.65352705     0.23600
C977        C  0.13241190  0.52728583  0.68529737    -0.12300
C978        C  0.10972168  0.52208127  0.71556367     0.05000
C979        C  0.14753396  0.50827569  0.62485831     0.27400
C980        C  0.16722963  0.99304234  0.63333755    -0.13000
C981        C  0.19149056  0.99506266  0.60817828     0.05500
C982        C  0.19708076  0.51182410  0.57390818    -0.09000
C983        C  0.17634263  0.52572765  0.56546607     0.06300
C984        C  0.15031564  0.52185225  0.58929187    -0.13400
Br985      Br  0.18104124  0.56149126  0.68698886    -0.05400
Br986      Br  0.05242902  0.92395697  0.68015691     0.00200
Br987      Br  0.21937546  0.97535587  0.61951121     0.00600
Br988      Br  0.11666227  0.53082891  0.56908948    -0.03800
Br989      Br  0.14080627  0.54068146  0.75805022     0.00700
Br990      Br  0.07208966  0.95429432  0.60538317    -0.03100
Br991      Br  0.16357731  0.96971713  0.67762133    -0.03900
Br992      Br  0.18235568  0.54853115  0.51970730     0.00000
C993        C  0.98748182  0.92255535  0.72023362     0.01500
C994        C  0.97785894  0.88518114  0.71865616     0.04300
C995        C  0.97922334  0.86880346  0.68519697    -0.11800
C996        C  0.98189795  0.88388934  0.65090036     0.23600
C997        C  0.48869259  0.91900811  0.65183880    -0.12300
C998        C  0.49156920  0.93687839  0.68560128     0.05000
C999        C  0.97811511  0.86228426  0.61632225     0.27400
C1000       C  0.00553693  0.87302302  0.59234983    -0.13000
C1001       C  0.01469732  0.84912877  0.57992511     0.05500
C1002       C  0.98981625  0.81359020  0.57705889    -0.09000
C1003       C  0.45836544  0.80254442  0.59383552     0.06300
C1004       C  0.45259515  0.82647182  0.61345030    -0.13400
Br1005     Br  0.49356413  0.94431039  0.60874266    -0.05400
Br1006     Br  0.96253747  0.84971439  0.75732796     0.00200
Br1007     Br  0.05923747  0.86791323  0.55964330     0.00600
Br1008     Br  0.40991641  0.80748400  0.63771412    -0.03800
Br1009     Br  0.49772491  0.98154834  0.68569189     0.00700
Br1010     Br  0.98553850  0.82866257  0.68660395    -0.03100
Br1011     Br  0.00713175  0.90012472  0.55169075    -0.03900
Br1012     Br  0.42420003  0.75360284  0.59461400     0.00000
C1013       C  0.99774093  0.92445198  0.78867063     0.01500
C1014       C  0.47545078  0.90842998  0.81974017     0.04300
C1015       C  0.47358264  0.88003386  0.83957039    -0.11800
C1016       C  0.00187889  0.87682357  0.84375815     0.23600
C1017       C  0.02804650  0.89539852  0.82039251    -0.12300
C1018       C  0.02297043  0.91215482  0.79002396     0.05000
C1019       C  0.00404498  0.85427461  0.87276738     0.27400
C1020       C  0.00234085  0.86155687  0.91001547    -0.13000
C1021       C  0.99962428  0.83796080  0.93638763     0.05500
C1022       C  0.00649375  0.81153125  0.92758407    -0.09000
C1023       C  0.51190321  0.80632367  0.89113190     0.06300
C1024       C  0.50669187  0.82479026  0.86363834    -0.13400
Br1025     Br  0.06788405  0.89097190  0.82811880    -0.05400
Br1026     Br  0.46738394  0.93317511  0.85631033     0.00200
Br1027     Br  0.98327063  0.83975495  0.98370701     0.00600
Br1028     Br  0.50122064  0.80792734  0.81418491    -0.03800
Br1029     Br  0.03878218  0.89271095  0.75380372     0.00700
Br1030     Br  0.43588109  0.84808498  0.86801242    -0.03100
Br1031     Br  0.00330189  0.90327978  0.92587355    -0.03900
Br1032     Br  0.52847253  0.77565800  0.87907516     0.00000
C1033       C  0.01121749  0.68912957  0.93177515     0.01500
C1034       C  0.03467296  0.67793332  0.93600092     0.04300
C1035       C  0.04085396  0.66096910  0.90710940    -0.11800
C1036       C  0.02323252  0.65419229  0.87367766     0.23600
C1037       C  0.50205079  0.66825178  0.86869779    -0.12300
C1038       C  0.49415338  0.68337801  0.89808963     0.05000
C1039       C  0.02112131  0.62692611  0.84706802     0.27400
C1040       C  0.04543166  0.63297644  0.82156125    -0.13000
C1041       C  0.03610414  0.60951075  0.79068476     0.05500
C1042       C  0.51194574  0.57070457  0.79150873    -0.09000
C1043       C  0.49353588  0.56481662  0.82652239     0.06300
C1044       C  0.49449451  0.59215245  0.84960785    -0.13400
Br1045     Br  0.48515279  0.66848403  0.82109688    -0.05400
Br1046     Br  0.05598856  0.68265119  0.98277251     0.00200
Br1047     Br  0.03869519  0.64320971  0.75541693     0.00600
Br1048     Br  0.45543953  0.58683479  0.87669436    -0.03800
Br1049     Br  0.45887092  0.69448330  0.89185655     0.00700
Br1050     Br  0.07606561  0.65060355  0.91320330    -0.03100
Br1051     Br  0.08383185  0.68020285  0.82304109    -0.03900
Br1052     Br  0.50734694  0.56310119  0.87753453     0.00000
C1053       C  0.99334329  0.68967406  0.59481047     0.01500
C1054       C  0.01627850  0.70432685  0.62468777     0.04300
C1055       C  0.01302886  0.68410921  0.65541126    -0.11800
C1056       C  0.98682067  0.64912034  0.65721444     0.23600
C1057       C  0.46060239  0.63745591  0.63100337    -0.12300
C1058       C  0.46511958  0.65572281  0.59870335     0.05000
C1059       C  0.98998862  0.62313818  0.68122242     0.27400
C1060       C  0.01018369  0.60974531  0.67053879    -0.13000
C1061       C  0.00950498  0.58104045  0.68897045     0.05500
C1062       C  0.49576700  0.56818322  0.72519136    -0.09000
C1063       C  0.47603123  0.58577086  0.73519213     0.06300
C1064       C  0.47207143  0.61021372  0.71272891    -0.13400
Br1065     Br  0.41559435  0.60217318  0.64291167    -0.05400
Br1066     Br  0.05146325  0.75252913  0.62511784     0.00200
Br1067     Br  0.01758691  0.55673589  0.65294966     0.00600
Br1068     Br  0.44670976  0.63302030  0.72729428    -0.03800
Br1069     Br  0.43320796  0.63193912  0.55944862     0.00700
Br1070     Br  0.04111266  0.70585183  0.69744764    -0.03100
Br1071     Br  0.03339474  0.62780282  0.62417028    -0.03900
Br1072     Br  0.45872211  0.58965577  0.78187861     0.00000
C1073       C  0.41901054  0.92678942  0.72100259     0.01500
C1074       C  0.38051643  0.90641163  0.72418413     0.04300
C1075       C  0.35612090  0.89426572  0.69432671    -0.11800
C1076       C  0.36581817  0.89454175  0.65912613     0.23600
C1077       C  0.40061358  0.91114439  0.65280398    -0.12300
C1078       C  0.42461165  0.92143193  0.68301509     0.05000
C1079       C  0.34128261  0.86676885  0.63268572     0.27400
C1080       C  0.32875213  0.83093949  0.63908369    -0.13000
C1081       C  0.30892819  0.80555601  0.61259639     0.05500
C1082       C  0.29914601  0.81516162  0.58055630    -0.09000
C1083       C  0.31123967  0.85047418  0.57424671     0.06300
C1084       C  0.33123040  0.87567253  0.60046261    -0.13400
Br1085     Br  0.41253154  0.91089283  0.60116095    -0.05400
Br1086     Br  0.35008889  0.88027249  0.76236517     0.00200
Br1087     Br  0.29600780  0.75771690  0.62069577     0.00600
Br1088     Br  0.34374398  0.92226773  0.59153665    -0.03800
Br1089     Br  0.41638892  0.87600822  0.67086652     0.00700
Br1090     Br  0.30634897  0.87391465  0.69849303    -0.03100
Br1091     Br  0.33560169  0.81472079  0.68482252    -0.03900
Br1092     Br  0.30378265  0.86550415  0.52785307     0.00000
C1093       C  0.42451316  0.92425366  0.78898398     0.01500
C1094       C  0.41182582  0.88618602  0.79005621     0.04300
C1095       C  0.39140199  0.86294486  0.81868712    -0.11800
C1096       C  0.38367178  0.87532029  0.85018526     0.23600
C1097       C  0.39341484  0.91004551  0.85080615    -0.12300
C1098       C  0.40586841  0.93011286  0.81844603     0.05000
C1099       C  0.35983858  0.85118238  0.87905798     0.27400
C1100       C  0.32501877  0.82863848  0.87052508    -0.13000
C1101       C  0.30251823  0.80593011  0.89618732     0.05500
C1102       C  0.31301707  0.80688370  0.93197719    -0.09000
C1103       C  0.34702848  0.82978390  0.94183250     0.06300
C1104       C  0.37042863  0.85186735  0.91575775    -0.13400
Br1105     Br  0.38200991  0.92708683  0.89469357    -0.05400
Br1106     Br  0.40274647  0.85707012  0.74898856     0.00200
Br1107     Br  0.25670734  0.77217233  0.88194923     0.00600
Br1108     Br  0.41562348  0.88486613  0.93285595    -0.04400
Br1109     Br  0.36984316  0.93954613  0.81537776     0.00700
Br1110     Br  0.37039942  0.81200908  0.81481012    -0.03100
Br1111     Br  0.30542532  0.82948009  0.82500953    -0.03900
Br1112     Br  0.36107675  0.83200926  0.99169285     0.00000
C1113       C  0.18370685  0.68027098  0.92213562     0.01500
C1114       C  0.16979910  0.68983495  0.89322620     0.04300
C1115       C  0.15575777  0.66777017  0.86257900    -0.11800
C1116       C  0.14942114  0.63351580  0.86269326     0.23600
C1117       C  0.16615210  0.62553321  0.88951093    -0.12300
C1118       C  0.18094283  0.64726347  0.92010363     0.05000
C1119       C  0.12542254  0.60657227  0.83500619     0.27400
C1120       C  0.09140079  0.58362187  0.84278546    -0.13000
C1121       C  0.06795166  0.56069278  0.81532351     0.05500
C1122       C  0.07545584  0.56169550  0.77807019    -0.09000
C1123       C  0.11306821  0.58415025  0.77237239     0.06300
C1124       C  0.13662266  0.60366567  0.80117341    -0.13400
Br1125     Br  0.18067716  0.59337548  0.87867746    -0.05400
Br1126     Br  0.16842222  0.73232782  0.89403710     0.00200
Br1127     Br  0.02740957  0.52173254  0.82774533     0.00600
Br1128     Br  0.18594715  0.62927505  0.79545185    -0.03800
Br1129     Br  0.19503933  0.62913944  0.95958431     0.00700
Br1130     Br  0.15913549  0.68932279  0.81710011    -0.03100
Br1131     Br  0.08055769  0.58222010  0.89334528    -0.03900
Br1132     Br  0.14034658  0.60225184  0.72781514     0.00000
C1133       C  0.06491347  0.56545071  0.71303559     0.01500
C1134       C  0.08034354  0.56030070  0.67955445     0.04300
C1135       C  0.10343076  0.58828483  0.65759521    -0.11800
C1136       C  0.10327698  0.61899114  0.65654223     0.23600
C1137       C  0.08767933  0.62601790  0.68495390    -0.12300
C1138       C  0.07587228  0.60352537  0.71554768     0.05000
C1139       C  0.12395986  0.64524734  0.62825752     0.27400
C1140       C  0.15472022  0.67565866  0.63807180    -0.13000
C1141       C  0.17540948  0.69853089  0.61133700     0.05500
C1142       C  0.16825477  0.68953327  0.57447541    -0.09000
C1143       C  0.13781003  0.65967033  0.56408887     0.06300
C1144       C  0.11565135  0.63757287  0.59075716    -0.13400
Br1145     Br  0.09266265  0.67211231  0.68551791    -0.05400
Br1146     Br  0.06302113  0.52682847  0.64025402     0.00200
Br1147     Br  0.21319564  0.74311837  0.62509432     0.00600
Br1148     Br  0.07592160  0.59509248  0.57507001    -0.03800
Br1149     Br  0.10107821  0.63754800  0.75453181     0.00700
Br1150     Br  0.14086320  0.58885214  0.63299448    -0.03100
Br1151     Br  0.17182596  0.68447723  0.68725841    -0.03900
Br1152     Br  0.12669888  0.64927701  0.51317048     0.00000
O1153       O  0.72225281  0.20189170  0.04106661    -0.74300
O1154       O  0.78659134  0.25430854  0.46664345    -0.74300
O1155       O  0.78423124  0.26104007  0.03881877    -0.74400
O1156       O  0.72470411  0.19556507  0.46768715    -0.74400
O1157       O  0.69902998  0.22598021  0.46148986    -0.74400
O1158       O  0.75834415  0.29137095  0.03296054    -0.74400
O1159       O  0.76109732  0.28508679  0.45999468    -0.74300
O1160       O  0.69669183  0.23263234  0.03436842    -0.74400
Ni1161     Ni  0.75488257  0.22708599  0.00382180     1.25400
Ni1162     Ni  0.72827802  0.25987099  0.49687405     1.25400
C1163       C  0.69888419  0.20839900  0.04973843     0.87900
C1164       C  0.78484010  0.27903177  0.45175400     0.87800
C1165       C  0.78171271  0.28749155  0.04712107     0.87800
C1166       C  0.70185318  0.19981447  0.45270033     0.88000
O1167       O  0.97243413  0.26594173  0.03631442    -0.74300
O1168       O  0.98096782  0.20326855  0.47172837    -0.74300
O1169       O  0.97281456  0.20618248  0.04500421    -0.74400
O1170       O  0.97995752  0.26271541  0.46432998    -0.74400
O1171       O  0.53515348  0.29412021  0.47208420    -0.74400
O1172       O  0.52868959  0.23474154  0.05103090    -0.74400
O1173       O  0.53628949  0.23443316  0.47727968    -0.74300
O1174       O  0.52816368  0.29509624  0.04580437    -0.74400
Ni1175     Ni  0.97509264  0.23365004  0.50437504     1.25400
Ni1176     Ni  0.53424096  0.26573647  0.51183304     1.25400
C1177       C  0.49890841  0.29099274  0.05199290     0.87900
C1178       C  0.50972309  0.20928236  0.46244746     0.87800
C1179       C  0.49951318  0.21138773  0.06217437     0.87800
C1180       C  0.50802367  0.28775441  0.45515820     0.88000
O1181       O  0.74122979  0.04213152  0.46310859    -0.74300
O1182       O  0.80744913  0.04910136  0.03268100    -0.74300
O1183       O  0.80236960  0.04816606  0.45874519    -0.74400
O1184       O  0.74452806  0.04342294  0.03684829    -0.74400
O1185       O  0.71988563  0.48487640  0.03490043    -0.74400
O1186       O  0.77970764  0.48888759  0.45932190    -0.74400
O1187       O  0.78141126  0.48815522  0.03249149    -0.74300
O1188       O  0.71978003  0.48561338  0.46081452    -0.74400
Ni1189     Ni  0.77487151  0.04779790  0.49818334     1.25400
Ni1190     Ni  0.74925786  0.48495938  0.49691406     1.25400
C1191       C  0.71953832  0.01205806  0.45039037     0.87900
C1192       C  0.80619252  0.02129354  0.04342657     0.87800
C1193       C  0.79975701  0.02031066  0.44537325     0.87800
C1194       C  0.72150063  0.01376948  0.04808045     0.88000
C1195       C  0.99699633  0.45040463  0.25432246    -0.02400
C1196       C  0.00140936  0.04074692  0.25433582    -0.02400
C1197       C  0.54216092  0.03571203  0.24806998    -0.02400
C1198       C  0.54080042  0.99052876  0.25047853    -0.02400
C1199       C  0.95594443  0.99863811  0.25149152    -0.02400
C1200       C  0.95284609  0.45135851  0.25351324    -0.02400
C1201       C  0.83228347  0.02290672  0.06864383     0.01500
C1202       C  0.85422963  0.50837985  0.05765233     0.04300
C1203       C  0.87660668  0.50644369  0.08277344    -0.11800
C1204       C  0.87434155  0.01452565  0.12063339     0.23600
C1205       C  0.85156109  0.02630965  0.13092757    -0.12300
C1206       C  0.83253040  0.03226472  0.10493698     0.05000
C1207       C  0.89380502  0.00628075  0.14938024     0.27400
C1208       C  0.87815059  0.47630196  0.17251169    -0.13000
C1209       C  0.89576899  0.47306850  0.20397896     0.05500
C1210       C  0.93250858  0.99476292  0.21105657    -0.09000
C1211       C  0.94621191  0.01297899  0.17719428     0.06300
C1212       C  0.92924116  0.02520059  0.15351490    -0.13400
Br1213     Br  0.84254259  0.03274373  0.18018887    -0.05400
Br1214     Br  0.85502111  0.49748851  0.00685648     0.00200
Br1215     Br  0.85972769  0.45142345  0.23821436     0.00600
Br1216     Br  0.95327610  0.06012407  0.11746002    -0.03800
Br1217     Br  0.80504125  0.05204940  0.11901012     0.00700
Br1218     Br  0.90875911  0.49493124  0.06281243    -0.03100
Br1219     Br  0.82911733  0.44745829  0.16390466    -0.03900
Br1220     Br  0.94815327  0.98744229  0.13548109     0.00000
C1221       C  0.81888659  0.02140324  0.41198105     0.01500
C1222       C  0.84890307  0.05197274  0.40188741     0.04300
C1223       C  0.86574987  0.05210821  0.36994227    -0.11800
C1224       C  0.85724220  0.02079057  0.35184267     0.23600
C1225       C  0.82506168  0.48658293  0.35984487    -0.12300
C1226       C  0.80539346  0.48859845  0.38813935     0.05000
C1227       C  0.88294000  0.01849035  0.32803690     0.27400
C1228       C  0.88281536  0.02178429  0.29115164    -0.13000
C1229       C  0.90821296  0.02106316  0.26877815     0.05500
C1230       C  0.93156390  0.00832725  0.28039288    -0.09000
C1231       C  0.93135611  0.50459057  0.32003814     0.06300
C1232       C  0.90849508  0.50990802  0.34282661    -0.13400
Br1233     Br  0.80552974  0.44562453  0.32919407    -0.05400
Br1234     Br  0.86923754  0.09371392  0.43159871     0.00200
Br1235     Br  0.90675038  0.04356651  0.22501203     0.00600
Br1236     Br  0.90740169  0.50682862  0.39596445    -0.03800
Br1237     Br  0.75840383  0.45233081  0.39118460     0.00700
Br1238     Br  0.89450385  0.09528161  0.34635358    -0.03100
Br1239     Br  0.84603659  0.02791707  0.27276515    -0.03900
Br1240     Br  0.95545357  0.49122149  0.35013339     0.00000
C1241       C  0.69510765  0.00798880  0.42170781     0.01500
C1242       C  0.66324858  0.48828978  0.42735303     0.04300
C1243       C  0.63955511  0.48320207  0.40032172    -0.11800
C1244       C  0.64772092  0.99555059  0.36523178     0.23600
C1245       C  0.68266342  0.01924226  0.36050565    -0.12300
C1246       C  0.70609194  0.02594933  0.38887032     0.05000
C1247       C  0.62157043  0.99209960  0.33745661     0.27400
C1248       C  0.61772122  0.47683364  0.30884082    -0.13000
C1249       C  0.59362300  0.47381606  0.28090393     0.05500
C1250       C  0.56696895  0.98516511  0.28373529    -0.09000
C1251       C  0.57190375  0.99604011  0.32202416     0.06300
C1252       C  0.60182429  0.00703917  0.34374165    -0.13400
Br1253     Br  0.69934707  0.04154905  0.31482915    -0.05400
Br1254     Br  0.64788592  0.46440275  0.47291382     0.00200
Br1255     Br  0.61194838  0.46138681  0.24007921     0.00600
Br1256     Br  0.60618226  0.02476526  0.39351677    -0.03800
Br1257     Br  0.75341712  0.05933431  0.38225784     0.00700
Br1258     Br  0.59318279  0.44967503  0.40978265    -0.03100
Br1259     Br  0.64735309  0.45623378  0.30625785    -0.03900
Br1260     Br  0.54366526  0.96407845  0.35727437     0.00000
C1261       C  0.56913522  0.99338977  0.21576180     0.01500
C1262       C  0.56612583  0.47254289  0.18322795     0.04300
C1263       C  0.58842759  0.47996519  0.15242574    -0.11800
C1264       C  0.61983275  0.00452038  0.15441678     0.23600
C1265       C  0.63018539  0.02403422  0.18693239    -0.12300
C1266       C  0.60706068  0.01881395  0.21673286     0.05000
C1267       C  0.64546657  0.00659905  0.12554391     0.27400
C1268       C  0.66883142  0.49422132  0.13310998    -0.13000
C1269       C  0.69188845  0.49442891  0.10741802     0.05500
C1270       C  0.69577922  0.01161431  0.07476200    -0.09000
C1271       C  0.67390540  0.02398670  0.06583454     0.06300
C1272       C  0.64811656  0.02026812  0.08992906    -0.13400
Br1273     Br  0.67918713  0.05684206  0.19016189    -0.05400
Br1274     Br  0.55845960  0.42659152  0.18281716     0.00200
Br1275     Br  0.71659938  0.47100841  0.11766225     0.00600
Br1276     Br  0.61509028  0.03039139  0.06990295    -0.03800
Br1277     Br  0.63743295  0.03611921  0.25990197     0.00700
Br1278     Br  0.57451656  0.45333483  0.10629976    -0.03100
Br1279     Br  0.66700179  0.47377133  0.17877217    -0.03900
Br1280     Br  0.67799884  0.04420885  0.01879893     0.00000
C1281       C  0.49192517  0.42434111  0.21974451     0.01500
C1282       C  0.48441415  0.38771390  0.21794140     0.04300
C1283       C  0.48707146  0.37220232  0.18465654    -0.11800
C1284       C  0.48842220  0.38665867  0.15038216     0.23600
C1285       C  0.99406908  0.42129201  0.15127777    -0.12300
C1286       C  0.99570662  0.43859369  0.18510150     0.05000
C1287       C  0.48289507  0.36368282  0.11632163     0.27400
C1288       C  0.50750742  0.37461050  0.08870507    -0.13000
C1289       C  0.51731534  0.35166796  0.07466801     0.05500
C1290       C  0.49491961  0.31560700  0.07629724    -0.09000
C1291       C  0.96543281  0.30336279  0.09710626     0.06300
C1292       C  0.95938787  0.32697173  0.11690961    -0.13400
Br1293     Br  0.99872245  0.44717881  0.10872026    -0.05400
Br1294     Br  0.46911175  0.35134280  0.25511788     0.00200
Br1295     Br  0.55857013  0.37109683  0.04723554     0.00600
Br1296     Br  0.92016513  0.30645767  0.14757770    -0.03800
Br1297     Br  0.99992862  0.48258694  0.18549546     0.00700
Br1298     Br  0.50013646  0.33664155  0.18640202    -0.03100
Br1299     Br  0.50467405  0.40068798  0.04928166    -0.03900
Br1300     Br  0.93608741  0.25389462  0.10373348     0.00000
C1301       C  0.50049255  0.42566362  0.28849355     0.01500
C1302       C  0.97649070  0.40687962  0.31724444     0.04300
C1303       C  0.97483666  0.37793640  0.33585947    -0.11800
C1304       C  0.50368760  0.37689587  0.34287242     0.23600
C1305       C  0.53146046  0.39897260  0.32294571    -0.12300
C1306       C  0.52727139  0.41575378  0.29204948     0.05000
C1307       C  0.50540274  0.35361644  0.37147797     0.27400
C1308       C  0.50112769  0.35901033  0.40850864    -0.13000
C1309       C  0.49931428  0.33565486  0.43473552     0.05500
C1310       C  0.50900192  0.31119604  0.42632207    -0.09000
C1311       C  0.01795914  0.30848927  0.39030823     0.06300
C1312       C  0.01272993  0.32687468  0.36250842    -0.13400
Br1313     Br  0.57290477  0.39942889  0.33549891    -0.05400
Br1314     Br  0.96806509  0.42956795  0.35588369     0.00200
Br1315     Br  0.48188457  0.33611260  0.48188958     0.00600
Br1316     Br  0.01412668  0.31412860  0.31260355    -0.03800
Br1317     Br  0.54531149  0.39693386  0.25788897     0.00700
Br1318     Br  0.93511202  0.34133128  0.35763352    -0.03100
Br1319     Br  0.50034103  0.39964081  0.42451414    -0.03900
Br1320     Br  0.03783700  0.28048279  0.37924126     0.00000
C1321       C  0.51364885  0.18871876  0.43290910     0.01500
C1322       C  0.53607530  0.17620110  0.43731062     0.04300
C1323       C  0.54175635  0.15891244  0.40835167    -0.11800
C1324       C  0.52538617  0.15407491  0.37445188     0.23600
C1325       C  0.00644117  0.17038769  0.36907853    -0.12300
C1326       C  0.99871780  0.18544754  0.39863925     0.05000
C1327       C  0.52252094  0.12678003  0.34756888     0.27400
C1328       C  0.54685076  0.13222397  0.32236589    -0.13000
C1329       C  0.53710906  0.10894408  0.29135033     0.05500
C1330       C  0.01240101  0.07064345  0.29190647    -0.09000
C1331       C  0.99443606  0.06512934  0.32692975     0.06300
C1332       C  0.99610020  0.09270529  0.35013843    -0.13400
Br1333     Br  0.99191436  0.17347204  0.32112277    -0.05400
Br1334     Br  0.55697537  0.18006062  0.48408006     0.00200
Br1335     Br  0.54055078  0.14357723  0.25672598     0.00600
Br1336     Br  0.95790306  0.08831525  0.37811881    -0.03800
Br1337     Br  0.96553141  0.19943027  0.39206299     0.00700
Br1338     Br  0.57406060  0.14445774  0.41504364    -0.03100
Br1339     Br  0.58632896  0.17861068  0.32469974    -0.03900
Br1340     Br  0.00903493  0.06318056  0.37717094     0.00000
C1341       C  0.49608020  0.19058977  0.09562485     0.01500
C1342       C  0.52003189  0.20467605  0.12475610     0.04300
C1343       C  0.51590725  0.18503977  0.15619616    -0.11800
C1344       C  0.48880371  0.15067210  0.15879316     0.23600
C1345       C  0.96241694  0.13945276  0.13293218    -0.12300
C1346       C  0.96692141  0.15739999  0.10038634     0.05000
C1347       C  0.49137973  0.12442524  0.18269566     0.27400
C1348       C  0.51036654  0.10984888  0.17148517    -0.13000
C1349       C  0.50902777  0.08089587  0.18990224     0.05500
C1350       C  0.99567761  0.06871010  0.22618225    -0.09000
C1351       C  0.97724072  0.08755538  0.23674908     0.06300
C1352       C  0.97409817  0.11260165  0.21450918    -0.13400
Br1353     Br  0.91766711  0.10417518  0.14562028    -0.05400
Br1354     Br  0.55892502  0.25080167  0.12281576     0.00200
Br1355     Br  0.51628609  0.05599234  0.15403837     0.00600
Br1356     Br  0.95052259  0.13720564  0.22955160    -0.03800
Br1357     Br  0.93388710  0.13352845  0.06210209     0.00700
Br1358     Br  0.54411836  0.20685547  0.19817474    -0.03100
Br1359     Br  0.53331422  0.12720809  0.12488180    -0.03900
Br1360     Br  0.96046792  0.09208916  0.28351888     0.00000
C1361       C  0.92183801  0.42578388  0.21855978     0.01500
C1362       C  0.88318602  0.40382389  0.22058839     0.04300
C1363       C  0.85937124  0.39114333  0.18995661    -0.11800
C1364       C  0.86996122  0.39280230  0.15482215     0.23600
C1365       C  0.90494071  0.41081016  0.14969347    -0.12300
C1366       C  0.92830652  0.42110512  0.18059571     0.05000
C1367       C  0.84664753  0.36533158  0.12700258     0.27400
C1368       C  0.83596603  0.32967485  0.13173425    -0.13000
C1369       C  0.81741021  0.30477009  0.10430392     0.05500
C1370       C  0.80600241  0.31414567  0.07330935    -0.09000
C1371       C  0.81670276  0.34934918  0.06819173     0.06300
C1372       C  0.83600370  0.37430783  0.09512048    -0.13400
Br1373     Br  0.91816298  0.41200675  0.09846990    -0.05400
Br1374     Br  0.85212974  0.37765116  0.25843007     0.00200
Br1375     Br  0.80875560  0.25796859  0.10962054     0.00600
Br1376     Br  0.84568825  0.42031017  0.08821093    -0.03800
Br1377     Br  0.92182585  0.37633939  0.16851686     0.00700
Br1378     Br  0.80931716  0.36831361  0.19266518    -0.03100
Br1379     Br  0.84273052  0.31262822  0.17690687    -0.03900
Br1380     Br  0.80806897  0.36448695  0.02246495     0.00000
C1381       C  0.92643810  0.42325684  0.28715402     0.01500
C1382       C  0.91307381  0.38504199  0.28789361     0.04300
C1383       C  0.89078892  0.36159695  0.31555662    -0.11800
C1384       C  0.88429414  0.37402083  0.34771110     0.23600
C1385       C  0.89602819  0.40910982  0.34928282    -0.12300
C1386       C  0.90852911  0.42939053  0.31702448     0.05000
C1387       C  0.85936522  0.34991139  0.37583795     0.27400
C1388       C  0.82423548  0.33204406  0.36798509    -0.13000
C1389       C  0.80097741  0.30627842  0.39086952     0.05500
C1390       C  0.81094477  0.30168990  0.42526722    -0.09000
C1391       C  0.84532887  0.32185566  0.43552040     0.06300
C1392       C  0.86950324  0.34549105  0.41095679    -0.13400
Br1393     Br  0.88763917  0.42643479  0.39462131    -0.05400
Br1394     Br  0.90805941  0.35688399  0.24722782     0.00200
Br1395     Br  0.75562573  0.27567129  0.37360867     0.00600
Br1396     Br  0.91506355  0.37464166  0.42855463    -0.04400
Br1397     Br  0.87070166  0.43570551  0.31443247     0.00700
Br1398     Br  0.86432593  0.31085812  0.30888864    -0.03100
Br1399     Br  0.80594002  0.34608818  0.32965328    -0.03900
Br1400     Br  0.85892344  0.31861372  0.48423728     0.00000
C1401       C  0.67974616  0.17471459  0.42382451     0.01500
C1402       C  0.66837218  0.18574644  0.39390566     0.04300
C1403       C  0.65456463  0.16402579  0.36299602    -0.11800
C1404       C  0.64668777  0.12919603  0.36358202     0.23600
C1405       C  0.66180092  0.12015313  0.39115803    -0.12300
C1406       C  0.67491510  0.14091691  0.42252118     0.05000
C1407       C  0.62281246  0.10258818  0.33579493     0.27400
C1408       C  0.58898760  0.07875318  0.34375529    -0.13000
C1409       C  0.56545105  0.05659338  0.31591810     0.05500
C1410       C  0.57324649  0.05886676  0.27861434    -0.09000
C1411       C  0.61083341  0.08092315  0.27309645     0.06300
C1412       C  0.63421861  0.10027696  0.30192848    -0.13400
Br1413     Br  0.67941451  0.09058310  0.37963136    -0.05400
Br1414     Br  0.67063591  0.23006569  0.39375395     0.00200
Br1415     Br  0.52416166  0.01734045  0.32750651     0.00600
Br1416     Br  0.68363371  0.12582837  0.29638281    -0.03800
Br1417     Br  0.68351041  0.12060289  0.46401373     0.00700
Br1418     Br  0.66060255  0.18641577  0.31736086    -0.03100
Br1419     Br  0.57868687  0.07499501  0.39473071    -0.03900
Br1420     Br  0.63850557  0.09804972  0.22877035     0.00000
C1421       C  0.56358268  0.06360429  0.21330666     0.01500
C1422       C  0.57873385  0.05798419  0.17982286     0.04300
C1423       C  0.60275412  0.08586124  0.15836579    -0.11800
C1424       C  0.60389220  0.11723935  0.15744762     0.23600
C1425       C  0.58782819  0.12441951  0.18518835    -0.12300
C1426       C  0.57534501  0.10190698  0.21576507     0.05000
C1427       C  0.62637846  0.14381380  0.13016046     0.27400
C1428       C  0.65848242  0.17200418  0.14081379    -0.13000
C1429       C  0.68157422  0.19364336  0.11458771     0.05500
C1430       C  0.67358340  0.18714253  0.07739696    -0.09000
C1431       C  0.64164850  0.15955527  0.06653623     0.06300
C1432       C  0.61842992  0.13763853  0.09257007    -0.13400
Br1433     Br  0.59396503  0.17095817  0.18535140    -0.05400
Br1434     Br  0.56046358  0.02528956  0.13965766     0.00200
Br1435     Br  0.72447256  0.23241374  0.12969525     0.00600
Br1436     Br  0.57727550  0.09716664  0.07588932    -0.03800
Br1437     Br  0.60163115  0.13593377  0.25437347     0.00700
Br1438     Br  0.64043753  0.08568408  0.13552802    -0.03100
Br1439     Br  0.67301636  0.17959923  0.19091666    -0.03900
Br1440     Br  0.63021140  0.15109206  0.01557757     0.00000
O1441       O  0.72273360  0.20182827  0.54107986    -0.74300
O1442       O  0.78581931  0.25461476  0.96652950    -0.74300
O1443       O  0.78484609  0.26081571  0.53887230    -0.74400
O1444       O  0.72417904  0.19569950  0.96776586    -0.74400
O1445       O  0.69819722  0.22582974  0.96171549    -0.74400
O1446       O  0.75910725  0.29127207  0.53290694    -0.74400
O1447       O  0.76006448  0.28514995  0.95999244    -0.74300
O1448       O  0.69736105  0.23272661  0.53420983    -0.74400
Ni1449     Ni  0.75546290  0.22688275  0.50384880     1.25400
Ni1450     Ni  0.72744613  0.25985143  0.99699269     1.25400
C1451       C  0.69946008  0.20849091  0.54971924     0.87900
C1452       C  0.78386808  0.27923077  0.95164269     0.87800
C1453       C  0.78241172  0.28733344  0.54711510     0.87800
C1454       C  0.70117322  0.19976042  0.95290931     0.88000
O1455       O  0.97335977  0.26653691  0.53675841    -0.74300
O1456       O  0.98000867  0.20263112  0.97131523    -0.74300
O1457       O  0.97378254  0.20684867  0.54538778    -0.74400
O1458       O  0.97903034  0.26214000  0.96392308    -0.74400
O1459       O  0.53508029  0.29411025  0.97223360    -0.74400
O1460       O  0.52894806  0.23505337  0.55115481    -0.74400
O1461       O  0.53620988  0.23440219  0.97717863    -0.74300
O1462       O  0.52846015  0.29546325  0.54567080    -0.74400
Ni1463     Ni  0.97413320  0.23301849  0.00395910     1.25400
Ni1464     Ni  0.53405843  0.26555273  0.01184714     1.25400
C1465       C  0.49919852  0.29130929  0.55195341     0.87900
C1466       C  0.50968185  0.20927018  0.96227026     0.87800
C1467       C  0.49979162  0.21167542  0.56233540     0.87800
C1468       C  0.50800561  0.28780284  0.95523295     0.88000
O1469       O  0.74126274  0.04219485  0.96309030    -0.74300
O1470       O  0.80745662  0.04910814  0.53267617    -0.74300
O1471       O  0.80235711  0.04813111  0.95874147    -0.74400
O1472       O  0.74456044  0.04335925  0.53687299    -0.74400
O1473       O  0.71986137  0.48514090  0.53442511    -0.74400
O1474       O  0.77953523  0.48875884  0.95941273    -0.74400
O1475       O  0.78131891  0.48820590  0.53235604    -0.74300
O1476       O  0.71949470  0.48526658  0.96127319    -0.74400
Ni1477     Ni  0.77487470  0.04782793  0.99817913     1.25400
Ni1478     Ni  0.74917891  0.48475445  0.99720413     1.25400
C1479       C  0.71957791  0.01212520  0.95036044     0.87900
C1480       C  0.80622834  0.02131702  0.54342140     0.87800
C1481       C  0.79969668  0.02023866  0.94540540     0.87800
C1482       C  0.72157570  0.01370820  0.54813969     0.88000
C1483       C  0.99710937  0.45069503  0.75459969    -0.02400
C1484       C  0.00128676  0.04063197  0.75439493    -0.02400
C1485       C  0.54232046  0.03580623  0.74812333    -0.02400
C1486       C  0.54092546  0.99059857  0.75047875    -0.02400
C1487       C  0.95583271  0.99851432  0.75159836    -0.02400
C1488       C  0.95289127  0.45149243  0.75370635    -0.02400
C1489       C  0.83228862  0.02297572  0.56870906     0.01500
C1490       C  0.85397918  0.50797851  0.55763615     0.04300
C1491       C  0.87647350  0.50622001  0.58274969    -0.11800
C1492       C  0.87431261  0.01465480  0.62079162     0.23600
C1493       C  0.85162213  0.02658080  0.63101320    -0.12300
C1494       C  0.83244888  0.03230515  0.60499559     0.05000
C1495       C  0.89371192  0.00636271  0.64958163     0.27400
C1496       C  0.87814272  0.47628982  0.67254363    -0.13000
C1497       C  0.89577633  0.47308211  0.70402183     0.05500
C1498       C  0.93237822  0.99468369  0.71118826    -0.09000
C1499       C  0.94609129  0.01293292  0.67734933     0.06300
C1500       C  0.92915452  0.02519346  0.65367677    -0.13400
Br1501     Br  0.84307025  0.03373585  0.68022288    -0.05400
Br1502     Br  0.85433424  0.49636399  0.50698815     0.00200
Br1503     Br  0.85978507  0.45143524  0.73827606     0.00600
Br1504     Br  0.95324707  0.06008124  0.61758927    -0.03800
Br1505     Br  0.80470853  0.05182235  0.61899805     0.00700
Br1506     Br  0.90875640  0.49488158  0.56280953    -0.03100
Br1507     Br  0.82911740  0.44743211  0.66395271    -0.03900
Br1508     Br  0.94804922  0.98743591  0.63563878     0.00000
C1509       C  0.81873770  0.02122182  0.91199046     0.01500
C1510       C  0.84871947  0.05175471  0.90176252     0.04300
C1511       C  0.86547678  0.05177641  0.86980186    -0.11800
C1512       C  0.85697925  0.02039315  0.85188296     0.23600
C1513       C  0.82484908  0.48673451  0.85972801    -0.12300
C1514       C  0.80514634  0.48872611  0.88801825     0.05000
C1515       C  0.88268215  0.01807878  0.82813964     0.27400
C1516       C  0.88258968  0.02140373  0.79126988    -0.13000
C1517       C  0.90810879  0.02088429  0.76896520     0.05500
C1518       C  0.93146162  0.00815352  0.78056143    -0.09000
C1519       C  0.93129080  0.50478276  0.82004912     0.06300
C1520       C  0.90841017  0.51012827  0.84279440    -0.13400
Br1521     Br  0.80535054  0.44576310  0.82911324    -0.05400
Br1522     Br  0.86919670  0.09356679  0.93134594     0.00200
Br1523     Br  0.90664057  0.04347838  0.72528570     0.00600
Br1524     Br  0.90733544  0.50715236  0.89592296    -0.03800
Br1525     Br  0.75806260  0.45267671  0.89085253     0.00700
Br1526     Br  0.89410641  0.09483608  0.84595646    -0.03100
Br1527     Br  0.84557819  0.02710268  0.77275322    -0.03900
Br1528     Br  0.95546781  0.49151295  0.85016957     0.00000
C1529       C  0.69516228  0.00805629  0.92166752     0.01500
C1530       C  0.66292102  0.48797694  0.92771420     0.04300
C1531       C  0.63929061  0.48305763  0.90066615    -0.11800
C1532       C  0.64780252  0.99570261  0.86520658     0.23600
C1533       C  0.68273312  0.01948054  0.86054119    -0.12300
C1534       C  0.70614601  0.02616031  0.88890983     0.05000
C1535       C  0.62165100  0.99221641  0.83743187     0.27400
C1536       C  0.61786857  0.47687841  0.80894957    -0.13000
C1537       C  0.59382515  0.47388773  0.78095702     0.05500
C1538       C  0.56704553  0.98518863  0.78372217    -0.09000
C1539       C  0.57192243  0.99602324  0.82200333     0.06300
C1540       C  0.60182914  0.00706481  0.84374318    -0.13400
Br1541     Br  0.69943585  0.04196737  0.81495334    -0.05400
Br1542     Br  0.64746076  0.46395024  0.97319747     0.00200
Br1543     Br  0.61214357  0.46135279  0.74018370     0.00600
Br1544     Br  0.60604565  0.02465364  0.89356288    -0.03800
Br1545     Br  0.75345279  0.05967406  0.88237699     0.00700
Br1546     Br  0.59282758  0.44991077  0.91023845    -0.03100
Br1547     Br  0.64754416  0.45631432  0.80640950    -0.03900
Br1548     Br  0.54369303  0.96395575  0.85715212     0.00000
C1549       C  0.56929114  0.99350553  0.71579431     0.01500
C1550       C  0.56616239  0.47230100  0.68317240     0.04300
C1551       C  0.58832933  0.47966422  0.65224113    -0.11800
C1552       C  0.62006330  0.00465963  0.65454580     0.23600
C1553       C  0.63039069  0.02413902  0.68707699    -0.12300
C1554       C  0.60722273  0.01890928  0.71682859     0.05000
C1555       C  0.64571161  0.00673749  0.62570741     0.27400
C1556       C  0.66846393  0.49381299  0.63243176    -0.13000
C1557       C  0.69169157  0.49433028  0.60678160     0.05500
C1558       C  0.69590678  0.01159012  0.57486394    -0.09000
C1559       C  0.67420023  0.02419133  0.56604163     0.06300
C1560       C  0.64842770  0.02049650  0.59013158    -0.13400
Br1561     Br  0.67940572  0.05693269  0.69038171    -0.05400
Br1562     Br  0.55869350  0.42641331  0.68292036     0.00200
Br1563     Br  0.71642290  0.47089640  0.61683803     0.00600
Br1564     Br  0.61555588  0.03086151  0.57014853    -0.03800
Br1565     Br  0.63754841  0.03615064  0.76001524     0.00700
Br1566     Br  0.57436577  0.45281274  0.60619029    -0.03100
Br1567     Br  0.66591465  0.47239095  0.67764401    -0.03900
Br1568     Br  0.67856865  0.04482821  0.51919504     0.00000
C1569       C  0.49208166  0.42434530  0.71983334     0.01500
C1570       C  0.48457405  0.38773167  0.71810284     0.04300
C1571       C  0.48724381  0.37218332  0.68486441    -0.11800
C1572       C  0.48859062  0.38660164  0.65056289     0.23600
C1573       C  0.99448294  0.42141792  0.65172757    -0.12300
C1574       C  0.99600536  0.43878163  0.68545834     0.05000
C1575       C  0.48285205  0.36353854  0.61653240     0.27400
C1576       C  0.50690062  0.37461875  0.58835180    -0.13000
C1577       C  0.51701686  0.35198886  0.57409483     0.05500
C1578       C  0.49518474  0.31586487  0.57629025    -0.09000
C1579       C  0.96672286  0.30345855  0.59838579     0.06300
C1580       C  0.96034333  0.32679726  0.61824501    -0.13400
Br1581     Br  0.99946524  0.44737285  0.60912369    -0.05400
Br1582     Br  0.46922477  0.35142791  0.75533765     0.00200
Br1583     Br  0.55754493  0.37169105  0.54543481     0.00600
Br1584     Br  0.92152933  0.30599651  0.64953208    -0.03800
Br1585     Br  0.00001813  0.48269508  0.68563767     0.00700
Br1586     Br  0.50035938  0.33666210  0.68675572    -0.03100
Br1587     Br  0.50193349  0.39929802  0.54885285    -0.03900
Br1588     Br  0.93860837  0.25398315  0.60583889     0.00000
C1589       C  0.50062159  0.42576130  0.78858743     0.01500
C1590       C  0.97630959  0.40719389  0.81740506     0.04300
C1591       C  0.97457161  0.37821680  0.83597956    -0.11800
C1592       C  0.50387164  0.37714330  0.84308591     0.23600
C1593       C  0.53166711  0.39929194  0.82323206    -0.12300
C1594       C  0.52745408  0.41595304  0.79225032     0.05000
C1595       C  0.50558635  0.35387053  0.87168283     0.27400
C1596       C  0.50128537  0.35924317  0.90871454    -0.13000
C1597       C  0.49958319  0.33594483  0.93496245     0.05500
C1598       C  0.50909331  0.31135752  0.92646793    -0.09000
C1599       C  0.01681829  0.30810620  0.89009642     0.06300
C1600       C  0.01191475  0.32688055  0.86250349    -0.13400
Br1601     Br  0.57313617  0.39986659  0.83590703    -0.05400
Br1602     Br  0.96796352  0.42976483  0.85623199     0.00200
Br1603     Br  0.48274109  0.33679108  0.98235631     0.00600
Br1604     Br  0.01352862  0.31462158  0.81246548    -0.03800
Br1605     Br  0.54544268  0.39701258  0.75817797     0.00700
Br1606     Br  0.93462304  0.34115932  0.85685794    -0.03100
Br1607     Br  0.50022790  0.39974904  0.92466104    -0.03900
Br1608     Br  0.03597494  0.27952544  0.87860589     0.00000
C1609       C  0.51369354  0.18877541  0.93272311     0.01500
C1610       C  0.53618061  0.17632908  0.93714297     0.04300
C1611       C  0.54193659  0.15910136  0.90818586    -0.11800
C1612       C  0.52554617  0.15421644  0.87430301     0.23600
C1613       C  0.00606401  0.17014280  0.86869942    -0.12300
C1614       C  0.99794435  0.18483355  0.89826740     0.05000
C1615       C  0.52267499  0.12689218  0.84748522     0.27400
C1616       C  0.54697234  0.13236787  0.82224203    -0.13000
C1617       C  0.53723384  0.10902864  0.79128720     0.05500
C1618       C  0.01223050  0.07049572  0.79192423    -0.09000
C1619       C  0.99420524  0.06495074  0.82690235     0.06300
C1620       C  0.99587798  0.09253641  0.85009129    -0.13400
Br1621     Br  0.99225099  0.17384826  0.82059772    -0.05400
Br1622     Br  0.55705998  0.18018157  0.98391875     0.00200
Br1623     Br  0.54073949  0.14356597  0.75650522     0.00600
Br1624     Br  0.95759460  0.08812770  0.87798571    -0.03800
Br1625     Br  0.96428312  0.19815490  0.89163104     0.00700
Br1626     Br  0.57444049  0.14488820  0.91477976    -0.03100
Br1627     Br  0.58634780  0.17886548  0.82443286    -0.03900
Br1628     Br  0.00872885  0.06308469  0.87720189     0.00000
C1629       C  0.49637116  0.19082056  0.59574449     0.01500
C1630       C  0.52040546  0.20477841  0.62480481     0.04300
C1631       C  0.51621734  0.18511918  0.65624178    -0.11800
C1632       C  0.48903682  0.15079287  0.65885904     0.23600
C1633       C  0.96285899  0.13984378  0.63302725    -0.12300
C1634       C  0.96757533  0.15795864  0.60056892     0.05000
C1635       C  0.49155055  0.12449699  0.68275281     0.27400
C1636       C  0.51063982  0.11000362  0.67162883    -0.13000
C1637       C  0.50926852  0.08102548  0.69001765     0.05500
C1638       C  0.99556757  0.06860086  0.72624800    -0.09000
C1639       C  0.97711543  0.08744330  0.73678286     0.06300
C1640       C  0.97401534  0.11250969  0.71453644    -0.13400
Br1641     Br  0.91801060  0.10453100  0.64535818    -0.05400
Br1642     Br  0.55956671  0.25071061  0.62273730     0.00200
Br1643     Br  0.51647930  0.05612135  0.65412953     0.00600
Br1644     Br  0.95028395  0.13699057  0.72946935    -0.03800
Br1645     Br  0.93458916  0.13435721  0.56216709     0.00700
Br1646     Br  0.54450221  0.20686023  0.69818308    -0.03100
Br1647     Br  0.53374935  0.12746294  0.62514313    -0.03900
Br1648     Br  0.96034359  0.09204066  0.78353966     0.00000
C1649       C  0.92201860  0.42579970  0.71871583     0.01500
C1650       C  0.88336153  0.40388734  0.72059920     0.04300
C1651       C  0.85970174  0.39107354  0.68985542    -0.11800
C1652       C  0.87048616  0.39259583  0.65484124     0.23600
C1653       C  0.90546820  0.41056454  0.64987630    -0.12300
C1654       C  0.92864996  0.42085198  0.68089086     0.05000
C1655       C  0.84729717  0.36513033  0.62700662     0.27400
C1656       C  0.83665592  0.32949074  0.63171456    -0.13000
C1657       C  0.81817511  0.30461936  0.60424041     0.05500
C1658       C  0.80669283  0.31399695  0.57329974    -0.09000
C1659       C  0.81721985  0.34919567  0.56831537     0.06300
C1660       C  0.83659456  0.37413054  0.59522079    -0.13400
Br1661     Br  0.91893786  0.41165936  0.59879362    -0.05400
Br1662     Br  0.85209621  0.37792790  0.75839632     0.00200
Br1663     Br  0.80959820  0.25784230  0.60952889     0.00600
Br1664     Br  0.84626743  0.42015758  0.58856675    -0.03800
Br1665     Br  0.92220818  0.37598719  0.66908631     0.00700
Br1666     Br  0.80963084  0.36819449  0.69221816    -0.03100
Br1667     Br  0.84320584  0.31240764  0.67696967    -0.03900
Br1668     Br  0.80808110  0.36441507  0.52292055     0.00000
C1669       C  0.92635077  0.42339306  0.78735995     0.01500
C1670       C  0.91278152  0.38511663  0.78819158     0.04300
C1671       C  0.89016878  0.36170845  0.81571374    -0.11800
C1672       C  0.88368835  0.37419617  0.84779830     0.23600
C1673       C  0.89592392  0.40937866  0.84948449    -0.12300
C1674       C  0.90853984  0.42965927  0.81723277     0.05000
C1675       C  0.85854816  0.35017742  0.87583891     0.27400
C1676       C  0.82339856  0.33267987  0.86802913    -0.13000
C1677       C  0.79997592  0.30697250  0.89089973     0.05500
C1678       C  0.80992079  0.30200735  0.92516561    -0.09000
C1679       C  0.84434380  0.32182427  0.93534454     0.06300
C1680       C  0.86860292  0.34536819  0.91081146    -0.13400
Br1681     Br  0.88809975  0.42692521  0.89496717    -0.05400
Br1682     Br  0.90805306  0.35683996  0.74779414     0.00200
Br1683     Br  0.75441415  0.27696083  0.87380388     0.00600
Br1684     Br  0.91431634  0.37377060  0.92819651    -0.04400
Br1685     Br  0.87060612  0.43582735  0.81468672     0.00700
Br1686     Br  0.86328135  0.31098191  0.80899529    -0.03100
Br1687     Br  0.80539358  0.34696789  0.82960636    -0.03900
Br1688     Br  0.85790575  0.31830892  0.98398956     0.00000
C1689       C  0.67912987  0.17456822  0.92412006     0.01500
C1690       C  0.66761795  0.18548984  0.89424591     0.04300
C1691       C  0.65416320  0.16388273  0.86324085    -0.11800
C1692       C  0.64660445  0.12916819  0.86373917     0.23600
C1693       C  0.66173722  0.12019043  0.89134447    -0.12300
C1694       C  0.67467617  0.14091852  0.92274610     0.05000
C1695       C  0.62281902  0.10254951  0.83596309     0.27400
C1696       C  0.58899739  0.07873855  0.84389469    -0.13000
C1697       C  0.56550302  0.05659858  0.81602658     0.05500
C1698       C  0.57335551  0.05890074  0.77872882    -0.09000
C1699       C  0.61095318  0.08094194  0.77326991     0.06300
C1700       C  0.63429163  0.10025429  0.80214100    -0.13400
Br1701     Br  0.67930561  0.09055445  0.87996704    -0.05400
Br1702     Br  0.66922316  0.22949120  0.89426613     0.00200
Br1703     Br  0.52421954  0.01735131  0.82758888     0.00600
Br1704     Br  0.68372128  0.12585052  0.79670866    -0.03800
Br1705     Br  0.68359432  0.12076008  0.96417361     0.00700
Br1706     Br  0.66060617  0.18647143  0.81768270    -0.03100
Br1707     Br  0.57869452  0.07501809  0.89489556    -0.03900
Br1708     Br  0.63872118  0.09815038  0.72900853     0.00000
C1709       C  0.56382589  0.06378933  0.71340492     0.01500
C1710       C  0.57901829  0.05821457  0.67993057     0.04300
C1711       C  0.60311701  0.08611067  0.65853208    -0.11800
C1712       C  0.60434561  0.11753184  0.65762788     0.23600
C1713       C  0.58825455  0.12469456  0.68535931    -0.12300
C1714       C  0.57565511  0.10211619  0.71590217     0.05000
C1715       C  0.62689742  0.14411825  0.63032672     0.27400
C1716       C  0.65906156  0.17225568  0.64093653    -0.13000
C1717       C  0.68218731  0.19383367  0.61466738     0.05500
C1718       C  0.67413907  0.18737173  0.57747017    -0.09000
C1719       C  0.64213074  0.15988231  0.56667406     0.06300
C1720       C  0.61892335  0.13798130  0.59273659    -0.13400
Br1721     Br  0.59456496  0.17129758  0.68557866    -0.05400
Br1722     Br  0.56076359  0.02556689  0.63974496     0.00200
Br1723     Br  0.72520486  0.23246849  0.62972165     0.00600
Br1724     Br  0.57774096  0.09755056  0.57607583    -0.03800
Br1725     Br  0.60189936  0.13606039  0.75460638     0.00700
Br1726     Br  0.64086313  0.08594557  0.63587223    -0.03100
Br1727     Br  0.67360458  0.17984222  0.69104122    -0.03900
Br1728     Br  0.63057727  0.15154160  0.51573593     0.00000
O1729       O  0.71796653  0.70384087  0.04082135    -0.74300
O1730       O  0.78820240  0.76072277  0.47391328    -0.74300
O1731       O  0.77982338  0.76265340  0.04565658    -0.74400
O1732       O  0.72679745  0.70184695  0.46821558    -0.74400
O1733       O  0.70077576  0.73155924  0.45994928    -0.74400
O1734       O  0.75429491  0.79309899  0.03730007    -0.74400
O1735       O  0.76258259  0.79113525  0.46506703    -0.74300
O1736       O  0.69296579  0.73486373  0.03187511    -0.74400
Ni1737     Ni  0.75394038  0.73085065  0.00753948     1.25400
Ni1738     Ni  0.72679431  0.76390479  0.49817514     1.25400
C1739       C  0.69410156  0.71015888  0.04740854     0.87900
C1740       C  0.78700306  0.78563308  0.45882543     0.87800
C1741       C  0.77649628  0.78867334  0.05351249     0.87800
C1742       C  0.70445594  0.70582189  0.45164924     0.88000
O1743       O  0.96872068  0.76451731  0.03646221    -0.74300
O1744       O  0.97757247  0.70254119  0.47111933    -0.74300
O1745       O  0.96964252  0.70502559  0.04445309    -0.74400
O1746       O  0.97605136  0.76170748  0.46412682    -0.74400
O1747       O  0.53161913  0.79444406  0.47364365    -0.74400
O1748       O  0.52524247  0.73338598  0.05046028    -0.74400
O1749       O  0.53339316  0.73505256  0.47658596    -0.74300
O1750       O  0.52376432  0.79316988  0.04715662    -0.74400
Ni1751     Ni  0.97113100  0.73239016  0.50389209     1.25400
Ni1752     Ni  0.53071420  0.76525666  0.51226656     1.25400
C1753       C  0.49442251  0.78894777  0.05293759     0.87900
C1754       C  0.50704669  0.70966502  0.46160370     0.87800
C1755       C  0.49603523  0.70998430  0.06139725     0.87800
C1756       C  0.50468880  0.78780660  0.45620968     0.88000
O1757       O  0.74453741  0.54320096  0.46300972    -0.74300
O1758       O  0.80819968  0.54590880  0.03297960    -0.74300
O1759       O  0.80427134  0.54616574  0.45890271    -0.74400
O1760       O  0.74642771  0.54253385  0.03700078    -0.74400
O1761       O  0.71973472  0.98586968  0.03572990    -0.74400
O1762       O  0.77982280  0.99112349  0.45986710    -0.74400
O1763       O  0.78225053  0.99147739  0.03297095    -0.74300
O1764       O  0.71845351  0.98476848  0.46209484    -0.74400
Ni1765     Ni  0.77695877  0.54662427  0.49821549     1.25400
Ni1766     Ni  0.74926924  0.98632555  0.49788197     1.25400
C1767       C  0.72213563  0.51372517  0.44981506     0.87900
C1768       C  0.80578480  0.51754290  0.04345947     0.87800
C1769       C  0.80045530  0.51789929  0.44512313     0.87800
C1770       C  0.72257355  0.51305669  0.04769586     0.88000
C1771       C  0.99408107  0.94945729  0.25486118    -0.02400
C1772       C  0.00215806  0.54085425  0.25384338    -0.02400
C1773       C  0.54387028  0.53735528  0.24787914    -0.02400
C1774       C  0.54336330  0.49258053  0.25032217    -0.02400
C1775       C  0.95726816  0.49770086  0.25071747    -0.02400
C1776       C  0.95070100  0.95196797  0.25495574    -0.02400
C1777       C  0.83113184  0.51836814  0.06904431     0.01500
C1778       C  0.85427291  0.01134711  0.05742800     0.04300
C1779       C  0.87617514  0.00855816  0.08259960    -0.11800
C1780       C  0.87442248  0.51202536  0.12080589     0.23600
C1781       C  0.85062811  0.52242106  0.13127232    -0.12300
C1782       C  0.83065949  0.52706194  0.10541275     0.05000
C1783       C  0.89440853  0.50442307  0.14933634     0.27400
C1784       C  0.87698824  0.97877971  0.17323148    -0.13000
C1785       C  0.89433791  0.97538783  0.20493177     0.05500
C1786       C  0.93383527  0.49360212  0.21037977    -0.09000
C1787       C  0.94735127  0.51246489  0.17685293     0.06300
C1788       C  0.92978465  0.52429548  0.15365568    -0.13400
Br1789     Br  0.84191531  0.52927768  0.18049827    -0.05400
Br1790     Br  0.85406830  0.99928554  0.00679169     0.00200
Br1791     Br  0.85830396  0.95554339  0.23954090     0.00600
Br1792     Br  0.95315821  0.55962325  0.11786631    -0.03800
Br1793     Br  0.80120205  0.54447441  0.11967860     0.00700
Br1794     Br  0.90704325  0.99519776  0.06275134    -0.03100
Br1795     Br  0.82778562  0.95123214  0.16503953    -0.03900
Br1796     Br  0.95023511  0.48785490  0.13484568     0.00000
C1797       C  0.81908252  0.51823449  0.41161679     0.01500
C1798       C  0.84896963  0.54840045  0.40059343     0.04300
C1799       C  0.86509919  0.54756183  0.36851451    -0.11800
C1800       C  0.85692428  0.51567429  0.35206712     0.23600
C1801       C  0.82517496  0.99162958  0.35858888    -0.12300
C1802       C  0.80560273  0.99234359  0.38774519     0.05000
C1803       C  0.88246021  0.51334571  0.32809978     0.27400
C1804       C  0.88161469  0.51603822  0.29121146    -0.13000
C1805       C  0.90777436  0.51720574  0.26878359     0.05500
C1806       C  0.93223740  0.50586454  0.28000704    -0.09000
C1807       C  0.93040551  0.00741729  0.32043990     0.06300
C1808       C  0.90792840  0.01355308  0.34300304    -0.13400
Br1809     Br  0.80534239  0.95267167  0.32514754    -0.05400
Br1810     Br  0.87008688  0.59095820  0.42888782     0.00200
Br1811     Br  0.90524855  0.53977003  0.22562767     0.00600
Br1812     Br  0.90549664  0.00921546  0.39614772    -0.03800
Br1813     Br  0.75940435  0.95451447  0.39163363     0.00700
Br1814     Br  0.89122233  0.58959143  0.34204691    -0.03100
Br1815     Br  0.84264622  0.51829969  0.27268229    -0.03900
Br1816     Br  0.95290512  0.99283607  0.35100544     0.00000
C1817       C  0.69781767  0.51135010  0.42204970     0.01500
C1818       C  0.66077614  0.98309425  0.42581588     0.04300
C1819       C  0.63753938  0.97616697  0.39753048    -0.11800
C1820       C  0.64987523  0.50210249  0.36764438     0.23600
C1821       C  0.68500471  0.52451557  0.36203534    -0.12300
C1822       C  0.70874608  0.52967696  0.38944548     0.05000
C1823       C  0.62403220  0.49790557  0.33921673     0.27400
C1824       C  0.61376241  0.97080310  0.30701276    -0.13000
C1825       C  0.58953934  0.96888693  0.27972985     0.05500
C1826       C  0.56982827  0.48859229  0.28400206    -0.09000
C1827       C  0.57345820  0.49908046  0.32220434     0.06300
C1828       C  0.60314965  0.51163977  0.34445943    -0.13400
Br1829     Br  0.70140407  0.54796905  0.31671728    -0.05400
Br1830     Br  0.64486990  0.95971743  0.47151082     0.00200
Br1831     Br  0.60667881  0.95617259  0.23794531     0.00600
Br1832     Br  0.60549212  0.52981442  0.39352438    -0.03800
Br1833     Br  0.75636272  0.56121822  0.38174481     0.00700
Br1834     Br  0.59184729  0.93970908  0.40434796    -0.03100
Br1835     Br  0.64265148  0.94947907  0.30285339    -0.03900
Br1836     Br  0.54437746  0.46709807  0.35699945     0.00000
C1837       C  0.57185831  0.49562803  0.21560314     0.01500
C1838       C  0.56315895  0.97102782  0.18266319     0.04300
C1839       C  0.58599340  0.97883187  0.15230162    -0.11800
C1840       C  0.62198547  0.50643098  0.15379721     0.23600
C1841       C  0.63228371  0.52717460  0.18549113    -0.12300
C1842       C  0.60951677  0.52194375  0.21566696     0.05000
C1843       C  0.64755714  0.50806797  0.12524863     0.27400
C1844       C  0.66711891  0.99312025  0.13320779    -0.13000
C1845       C  0.69144664  0.99523165  0.10809294     0.05500
C1846       C  0.69706523  0.51148675  0.07435499    -0.09000
C1847       C  0.67634570  0.52539214  0.06586415     0.06300
C1848       C  0.65031182  0.52153338  0.08963811    -0.13400
Br1849     Br  0.68088339  0.56154461  0.18719277    -0.05400
Br1850     Br  0.55242162  0.92390407  0.18028355     0.00200
Br1851     Br  0.71946519  0.97570036  0.11950857     0.00600
Br1852     Br  0.61670654  0.53053438  0.06934718    -0.03800
Br1853     Br  0.64053066  0.54045595  0.25813784     0.00700
Br1854     Br  0.57205716  0.95401951  0.10544964    -0.03100
Br1855     Br  0.66329705  0.96957463  0.17736203    -0.03900
Br1856     Br  0.68246648  0.54830209  0.02015715     0.00000
C1857       C  0.48741012  0.92250566  0.22037594     0.01500
C1858       C  0.47780595  0.88514087  0.21891096     0.04300
C1859       C  0.47927827  0.86871619  0.18554710    -0.11800
C1860       C  0.48190438  0.88366395  0.15118478     0.23600
C1861       C  0.98871212  0.91875011  0.15185928    -0.12300
C1862       C  0.99158799  0.93671598  0.18556745     0.05000
C1863       C  0.47815863  0.86190596  0.11672853     0.27400
C1864       C  0.50552348  0.87260417  0.09266429    -0.13000
C1865       C  0.51466767  0.84870837  0.08018067     0.05500
C1866       C  0.48982693  0.81316009  0.07748828    -0.09000
C1867       C  0.95859133  0.80213018  0.09426325     0.06300
C1868       C  0.95281643  0.82606761  0.11386157    -0.13400
Br1869     Br  0.99363109  0.94396664  0.10868872    -0.05400
Br1870     Br  0.46245316  0.84974886  0.25763788     0.00200
Br1871     Br  0.55906211  0.86743477  0.05950642     0.00600
Br1872     Br  0.91020652  0.80709800  0.13826668    -0.03800
Br1873     Br  0.99769282  0.98136721  0.18552816     0.00700
Br1874     Br  0.48604209  0.82886063  0.18720831    -0.03100
Br1875     Br  0.50706195  0.89967144  0.05201734    -0.03900
Br1876     Br  0.92459843  0.75314910  0.09528036     0.00000
C1877       C  0.49765353  0.92455597  0.28882884     0.01500
C1878       C  0.97548395  0.90864032  0.31981076     0.04300
C1879       C  0.97351302  0.88021753  0.33967483    -0.11800
C1880       C  0.50164666  0.87688319  0.34394255     0.23600
C1881       C  0.52784216  0.89540834  0.32060356    -0.12300
C1882       C  0.52284582  0.91221836  0.29023927     0.05000
C1883       C  0.50372075  0.85424538  0.37288475     0.27400
C1884       C  0.50214261  0.86155330  0.41014993    -0.13000
C1885       C  0.49937792  0.83790730  0.43647355     0.05500
C1886       C  0.50606498  0.81136972  0.42757436    -0.09000
C1887       C  0.01143543  0.80607614  0.39092127     0.06300
C1888       C  0.00624598  0.82462161  0.36350571    -0.13400
Br1889     Br  0.56759144  0.89082426  0.32837725    -0.05400
Br1890     Br  0.96758406  0.93352407  0.35636227     0.00200
Br1891     Br  0.48312683  0.83974512  0.48384121     0.00600
Br1892     Br  0.00066263  0.80782907  0.31401222    -0.03800
Br1893     Br  0.53877129  0.89289764  0.25404098     0.00700
Br1894     Br  0.93586199  0.84854873  0.36836666    -0.03100
Br1895     Br  0.50330739  0.90336472  0.42609264    -0.03900
Br1896     Br  0.02762030  0.77512468  0.37867201     0.00000
C1897       C  0.51127350  0.68924330  0.43203880     0.01500
C1898       C  0.53504208  0.67840764  0.43599713     0.04300
C1899       C  0.54092681  0.66116470  0.40713208    -0.11800
C1900       C  0.52296981  0.65407648  0.37387832     0.23600
C1901       C  0.00201289  0.66820320  0.36896128    -0.12300
C1902       C  0.99420852  0.68328966  0.39845678     0.05000
C1903       C  0.52087636  0.62683642  0.34719575     0.27400
C1904       C  0.54507334  0.63303086  0.32149606    -0.13000
C1905       C  0.53577606  0.60949747  0.29065807     0.05500
C1906       C  0.01199482  0.57076474  0.29147761    -0.09000
C1907       C  0.99367658  0.56486670  0.32652799     0.06300
C1908       C  0.99461248  0.59217384  0.34966521    -0.13400
Br1909     Br  0.98495344  0.66845706  0.32145154    -0.05400
Br1910     Br  0.55735722  0.68414641  0.48235618     0.00200
Br1911     Br  0.53845212  0.64303610  0.25511848     0.00600
Br1912     Br  0.95559095  0.58675288  0.37690634    -0.03800
Br1913     Br  0.95849665  0.69382362  0.39259744     0.00700
Br1914     Br  0.57612492  0.65075203  0.41299466    -0.03100
Br1915     Br  0.58318278  0.68046798  0.32274127    -0.03900
Br1916     Br  0.00771467  0.56329044  0.37741694     0.00000
C1917       C  0.49270179  0.68911604  0.09460241     0.01500
C1918       C  0.51544595  0.70392716  0.12460236     0.04300
C1919       C  0.51234308  0.68372520  0.15528189    -0.11800
C1920       C  0.48627811  0.64867627  0.15704615     0.23600
C1921       C  0.96027945  0.63707866  0.13076558    -0.12300
C1922       C  0.96486134  0.65525857  0.09838771     0.05000
C1923       C  0.48958802  0.62281591  0.18112534     0.27400
C1924       C  0.51002663  0.60966352  0.17058587    -0.13000
C1925       C  0.50943119  0.58099941  0.18901953     0.05500
C1926       C  0.99566386  0.56812347  0.22521040    -0.09000
C1927       C  0.97588866  0.58567183  0.23520859     0.06300
C1928       C  0.97180747  0.61001177  0.21268213    -0.13400
Br1929     Br  0.91521615  0.60201447  0.14271063    -0.05400
Br1930     Br  0.55000258  0.75236715  0.12530462     0.00200
Br1931     Br  0.51761853  0.55680199  0.15296097     0.00600
Br1932     Br  0.94634976  0.63271628  0.22721783    -0.03800
Br1933     Br  0.93313787  0.63137328  0.05901057     0.00700
Br1934     Br  0.54051378  0.70549570  0.19724366    -0.03100
Br1935     Br  0.53342252  0.62791747  0.12434803    -0.03900
Br1936     Br  0.95874863  0.58970183  0.28196586     0.00000
C1937       C  0.91906625  0.92676538  0.22094869     0.01500
C1938       C  0.88058245  0.90647099  0.22411106     0.04300
C1939       C  0.85619224  0.89422934  0.19424881    -0.11800
C1940       C  0.86590942  0.89439732  0.15907422     0.23600
C1941       C  0.90070412  0.91096933  0.15277567    -0.12300
C1942       C  0.92466452  0.92124371  0.18300502     0.05000
C1943       C  0.84138534  0.86657221  0.13267751     0.27400
C1944       C  0.82874476  0.83074361  0.13923215    -0.13000
C1945       C  0.80885861  0.80529616  0.11282208     0.05500
C1946       C  0.79930297  0.81487840  0.08062077    -0.09000
C1947       C  0.81157126  0.85018453  0.07412039     0.06300
C1948       C  0.83146265  0.87542374  0.10033236    -0.13400
Br1949     Br  0.91267035  0.91061036  0.10118141    -0.05400
Br1950     Br  0.85018144  0.88048584  0.26232085     0.00200
Br1951     Br  0.79545760  0.75738463  0.12125174     0.00600
Br1952     Br  0.84398218  0.92198910  0.09122970    -0.03800
Br1953     Br  0.91640635  0.87575245  0.17100593     0.00700
Br1954     Br  0.80640227  0.87381807  0.19839097    -0.03100
Br1955     Br  0.83555892  0.81463234  0.18505859    -0.03900
Br1956     Br  0.80445988  0.86511196  0.02749613     0.00000
C1957       C  0.92455629  0.92437398  0.28898863     0.01500
C1958       C  0.91182006  0.88630088  0.29018047     0.04300
C1959       C  0.89139025  0.86316072  0.31887937    -0.11800
C1960       C  0.88377780  0.87565986  0.35036778     0.23600
C1961       C  0.89359645  0.91039267  0.35087791    -0.12300
C1962       C  0.90594673  0.93032221  0.31842346     0.05000
C1963       C  0.85987727  0.85162695  0.37926578     0.27400
C1964       C  0.82505287  0.82922145  0.37067770    -0.13000
C1965       C  0.80248158  0.80642739  0.39622016     0.05500
C1966       C  0.81287900  0.80732770  0.43203249    -0.09000
C1967       C  0.84682565  0.83032150  0.44205469     0.06300
C1968       C  0.87035594  0.85232031  0.41602453    -0.13400
Br1969     Br  0.88230689  0.92757114  0.39471749    -0.05400
Br1970     Br  0.90270620  0.85707102  0.24920565     0.00200
Br1971     Br  0.75668570  0.77273996  0.38181225     0.00600
Br1972     Br  0.91554320  0.88521041  0.43327289    -0.04400
Br1973     Br  0.86989852  0.93973815  0.31533730     0.00700
Br1974     Br  0.87027138  0.81221521  0.31516959    -0.03100
Br1975     Br  0.80552383  0.83053395  0.32533127    -0.03900
Br1976     Br  0.86053113  0.83290840  0.49211387     0.00000
C1977       C  0.68347943  0.68035958  0.42225643     0.01500
C1978       C  0.66949817  0.68983127  0.39335022     0.04300
C1979       C  0.65540899  0.66769092  0.36275989    -0.11800
C1980       C  0.64916998  0.63347033  0.36288795     0.23600
C1981       C  0.66588106  0.62553645  0.38977999    -0.12300
C1982       C  0.68070088  0.64734464  0.42032061     0.05000
C1983       C  0.62521486  0.60648606  0.33518931     0.27400
C1984       C  0.59119371  0.58354320  0.34293071    -0.13000
C1985       C  0.56778312  0.56058494  0.31545638     0.05500
C1986       C  0.57529579  0.56154419  0.27819932    -0.09000
C1987       C  0.61291817  0.58401352  0.27255382     0.06300
C1988       C  0.63644514  0.60352931  0.30138715    -0.13400
Br1989     Br  0.68018010  0.59316248  0.37921147    -0.05400
Br1990     Br  0.66806779  0.73229420  0.39412971     0.00200
Br1991     Br  0.52733353  0.52163809  0.32794569     0.00600
Br1992     Br  0.68576617  0.62907974  0.29575683    -0.03800
Br1993     Br  0.69479555  0.62932303  0.45990188     0.00700
Br1994     Br  0.65837575  0.68908407  0.31730828    -0.03100
Br1995     Br  0.58032584  0.58214359  0.39349698    -0.03900
Br1996     Br  0.64022681  0.60217011  0.22802760     0.00000
C1997       C  0.56480367  0.56534058  0.21312648     0.01500
C1998       C  0.58024608  0.56020641  0.17964363     0.04300
C1999       C  0.60337248  0.58820433  0.15771758    -0.11800
C2000       C  0.60327642  0.61894533  0.15668289     0.23600
C2001       C  0.58767573  0.62597022  0.18509997    -0.12300
C2002       C  0.57578213  0.60342009  0.21565841     0.05000
C2003       C  0.62396204  0.64519028  0.12836290     0.27400
C2004       C  0.65468997  0.67565640  0.13814223    -0.13000
C2005       C  0.67533683  0.69853424  0.11137640     0.05500
C2006       C  0.66830532  0.68940075  0.07452230    -0.09000
C2007       C  0.63792996  0.65943971  0.06416574     0.06300
C2008       C  0.61570163  0.63744128  0.09085778    -0.13400
Br2009     Br  0.59269754  0.67209181  0.18570672    -0.05400
Br2010     Br  0.56292912  0.52670142  0.14035613     0.00200
Br2011     Br  0.71283328  0.74332672  0.12507885     0.00600
Br2012     Br  0.57590555  0.59500407  0.07521588    -0.03800
Br2013     Br  0.60080649  0.63733385  0.25476290     0.00700
Br2014     Br  0.64072656  0.58869145  0.13304130    -0.03100
Br2015     Br  0.67184730  0.68451999  0.18731080    -0.03900
Br2016     Br  0.62700171  0.64878577  0.01324847     0.00000
O2017       O  0.71815250  0.70411575  0.54080372    -0.74300
O2018       O  0.78828350  0.76031757  0.97408131    -0.74300
O2019       O  0.77988982  0.76305178  0.54546527    -0.74400
O2020       O  0.72676866  0.70160715  0.96824270    -0.74400
O2021       O  0.70092477  0.73147987  0.95987391    -0.74400
O2022       O  0.75415917  0.79331631  0.53727500    -0.74400
O2023       O  0.76284073  0.79087900  0.96509435    -0.74300
O2024       O  0.69294508  0.73495613  0.53195057    -0.74400
Ni2025     Ni  0.75399698  0.73118543  0.50743001     1.25400
Ni2026     Ni  0.72694505  0.76375013  0.99815518     1.25400
C2027       C  0.69423068  0.71032767  0.54746100     0.87900
C2028       C  0.78718692  0.78524538  0.95889436     0.87800
C2029       C  0.77645701  0.78898786  0.55340320     0.87800
C2030       C  0.70453605  0.70569872  0.95158554     0.88000
O2031       O  0.96869616  0.76474484  0.53627776    -0.74300
O2032       O  0.97737700  0.70253176  0.97075063    -0.74300
O2033       O  0.96992635  0.70547168  0.54479009    -0.74400
O2034       O  0.97619757  0.76192157  0.96423800    -0.74400
O2035       O  0.53161473  0.79424128  0.97368363    -0.74400
O2036       O  0.52568938  0.73393521  0.55060472    -0.74400
O2037       O  0.53309530  0.73468737  0.97646786    -0.74300
O2038       O  0.52394933  0.79360968  0.54710574    -0.74400
Ni2039     Ni  0.97105097  0.73228284  0.00377783     1.25400
Ni2040     Ni  0.53047572  0.76485863  0.01222274     1.25400
C2041       C  0.49458121  0.78933029  0.55284213     0.87900
C2042       C  0.50673495  0.70942461  0.96136212     0.87800
C2043       C  0.49653603  0.71047719  0.56161402     0.87800
C2044       C  0.50475466  0.78778838  0.95622152     0.88000
O2045       O  0.74418932  0.54285184  0.96341803    -0.74300
O2046       O  0.80826216  0.54595997  0.53285069    -0.74300
O2047       O  0.80401093  0.54603729  0.95904623    -0.74400
O2048       O  0.74651031  0.54279861  0.53662280    -0.74400
O2049       O  0.71980412  0.98580930  0.53576705    -0.74400
O2050       O  0.77977329  0.99108680  0.95995200    -0.74400
O2051       O  0.78234023  0.99148792  0.53291494    -0.74300
O2052       O  0.71847827  0.98483311  0.96207251    -0.74400
Ni2053     Ni  0.77676040  0.54641794  0.99847267     1.25400
Ni2054     Ni  0.74922294  0.98635200  0.99790840     1.25400
C2055       C  0.72179159  0.51335178  0.95027601     0.87900
C2056       C  0.80575556  0.51754777  0.54333971     0.87800
C2057       C  0.80023234  0.51780353  0.94521397     0.87800
C2058       C  0.72256701  0.51332502  0.54722689     0.88000
C2059       C  0.99400081  0.94937345  0.75489860    -0.02400
C2060       C  0.00216399  0.54098846  0.75387613    -0.02400
C2061       C  0.54404329  0.53732653  0.74776884    -0.02400
C2062       C  0.54352461  0.49255839  0.75026843    -0.02400
C2063       C  0.95726536  0.49781025  0.75078623    -0.02400
C2064       C  0.95060435  0.95185160  0.75501014    -0.02400
C2065       C  0.83107287  0.51827013  0.56894513     0.01500
C2066       C  0.85441088  0.01158789  0.55752204     0.04300
C2067       C  0.87616500  0.00864323  0.58276874    -0.11800
C2068       C  0.87439788  0.51197350  0.62076035     0.23600
C2069       C  0.85069669  0.52251098  0.63116691    -0.12300
C2070       C  0.83079523  0.52722763  0.60526762     0.05000
C2071       C  0.89438733  0.50438792  0.64933016     0.27400
C2072       C  0.87683036  0.97890799  0.67349055    -0.13000
C2073       C  0.89420133  0.97536138  0.70509349     0.05500
C2074       C  0.93383488  0.49362451  0.71042182    -0.09000
C2075       C  0.94733153  0.51242824  0.67686345     0.06300
C2076       C  0.92976258  0.52425865  0.65365930    -0.13400
Br2077     Br  0.84193076  0.52934032  0.68036916    -0.05400
Br2078     Br  0.85468650  0.00013889  0.50677413     0.00200
Br2079     Br  0.85822865  0.95535906  0.73974689     0.00600
Br2080     Br  0.95311586  0.55961478  0.61791339    -0.03800
Br2081     Br  0.80162111  0.54501609  0.61943901     0.00700
Br2082     Br  0.90683589  0.99496986  0.56303199    -0.03100
Br2083     Br  0.82753913  0.95175043  0.66562695    -0.03900
Br2084     Br  0.95014121  0.48766910  0.63493932     0.00000
C2085       C  0.81887325  0.51823659  0.91165896     0.01500
C2086       C  0.84884004  0.54838835  0.90077806     0.04300
C2087       C  0.86496557  0.54765648  0.86863899    -0.11800
C2088       C  0.85675433  0.51582046  0.85200888     0.23600
C2089       C  0.82494406  0.99123320  0.85874751    -0.12300
C2090       C  0.80541092  0.99205935  0.88788130     0.05000
C2091       C  0.88234438  0.51351310  0.82804141     0.27400
C2092       C  0.88152843  0.51615038  0.79112797    -0.13000
C2093       C  0.90771729  0.51730650  0.76873270     0.05500
C2094       C  0.93219145  0.50599571  0.78001797    -0.09000
C2095       C  0.93024635  0.00715281  0.82061867     0.06300
C2096       C  0.90771098  0.01322744  0.84315244    -0.13400
Br2097     Br  0.80509777  0.95210996  0.82550882    -0.05400
Br2098     Br  0.87009029  0.59074553  0.92940020     0.00200
Br2099     Br  0.90531583  0.53989656  0.72553081     0.00600
Br2100     Br  0.90521862  0.00885699  0.89629422    -0.03800
Br2101     Br  0.75923167  0.95421049  0.89192800     0.00700
Br2102     Br  0.89109166  0.58979227  0.84234943    -0.03100
Br2103     Br  0.84259465  0.51839224  0.77250176    -0.03900
Br2104     Br  0.95269261  0.99252060  0.85125542     0.00000
C2105       C  0.69751190  0.51097239  0.92247368     0.01500
C2106       C  0.66085224  0.98303383  0.92567872     0.04300
C2107       C  0.63762473  0.97619361  0.89741587    -0.11800
C2108       C  0.64974352  0.50191263  0.86795065     0.23600
C2109       C  0.68489294  0.52423423  0.86242041    -0.12300
C2110       C  0.70854133  0.52932842  0.88989961     0.05000
C2111       C  0.62404237  0.49782680  0.83939798     0.27400
C2112       C  0.61386770  0.97090073  0.80700255    -0.13000
C2113       C  0.58961565  0.96891474  0.77971931     0.05500
C2114       C  0.57000835  0.48864617  0.78399836    -0.09000
C2115       C  0.57361655  0.49917984  0.82219913     0.06300
C2116       C  0.60327524  0.51170480  0.84448933    -0.13400
Br2117     Br  0.70143538  0.54764220  0.81709147    -0.05400
Br2118     Br  0.64494464  0.95927873  0.97118505     0.00200
Br2119     Br  0.60671194  0.95616275  0.73791799     0.00600
Br2120     Br  0.60575087  0.53019001  0.89341354    -0.03800
Br2121     Br  0.75618927  0.56081269  0.88232840     0.00700
Br2122     Br  0.59193966  0.93968003  0.90413861    -0.03100
Br2123     Br  0.64285945  0.94970449  0.80283119    -0.03900
Br2124     Br  0.54438883  0.46740683  0.85709715     0.00000
C2125       C  0.57196670  0.49548476  0.71550154     0.01500
C2126       C  0.56332614  0.97120496  0.68265753     0.04300
C2127       C  0.58620316  0.97903535  0.65234347    -0.11800
C2128       C  0.62185922  0.50619991  0.65345727     0.23600
C2129       C  0.63229079  0.52691973  0.68518368    -0.12300
C2130       C  0.60963368  0.52176529  0.71545680     0.05000
C2131       C  0.64733629  0.50785595  0.62477868     0.27400
C2132       C  0.66734291  0.99322753  0.63337270    -0.13000
C2133       C  0.69156342  0.99519315  0.60818890     0.05500
C2134       C  0.69702931  0.51170098  0.57389505    -0.09000
C2135       C  0.67629251  0.52562454  0.56551831     0.06300
C2136       C  0.65015591  0.52154112  0.58927832    -0.13400
Br2137     Br  0.68093605  0.56109471  0.68680990    -0.05400
Br2138     Br  0.55247082  0.92404969  0.68015368     0.00200
Br2139     Br  0.71949035  0.97554316  0.61955102     0.00600
Br2140     Br  0.61635771  0.53028248  0.56905080    -0.03800
Br2141     Br  0.64076131  0.54037875  0.75787786     0.00700
Br2142     Br  0.57223265  0.95440781  0.60540535    -0.03100
Br2143     Br  0.66377456  0.97000386  0.67770397    -0.03900
Br2144     Br  0.68250127  0.54883257  0.51999414     0.00000
C2145       C  0.48753938  0.92262928  0.72022315     0.01500
C2146       C  0.47791973  0.88525309  0.71862809     0.04300
C2147       C  0.47927654  0.86888036  0.68515927    -0.11800
C2148       C  0.48195167  0.88397340  0.65086606     0.23600
C2149       C  0.98862232  0.91891684  0.65186024    -0.12300
C2150       C  0.99150173  0.93679321  0.68561213     0.05000
C2151       C  0.47816842  0.86236703  0.61628430     0.27400
C2152       C  0.50562203  0.87306377  0.59236201    -0.13000
C2153       C  0.51476812  0.84914097  0.57998935     0.05500
C2154       C  0.48989723  0.81359657  0.57721841    -0.09000
C2155       C  0.95826280  0.80251661  0.59365378     0.06300
C2156       C  0.95254496  0.82638925  0.61345974    -0.13400
Br2157     Br  0.99339435  0.94418197  0.60876364    -0.05400
Br2158     Br  0.46260078  0.84976452  0.75727628     0.00200
Br2159     Br  0.55930366  0.86786142  0.55971550     0.00600
Br2160     Br  0.90997953  0.80731198  0.63799297    -0.03800
Br2161     Br  0.99764573  0.98145557  0.68568506     0.00700
Br2162     Br  0.48559556  0.82874086  0.68654749    -0.03100
Br2163     Br  0.50735102  0.90022320  0.55170029    -0.03900
Br2164     Br  0.92394435  0.75361467  0.59407485     0.00000
C2165       C  0.49776537  0.92450145  0.78868028     0.01500
C2166       C  0.97544175  0.90837394  0.81973896     0.04300
C2167       C  0.97362492  0.88000789  0.83958049    -0.11800
C2168       C  0.50180877  0.87680348  0.84375282     0.23600
C2169       C  0.52799291  0.89536149  0.82040077    -0.12300
C2170       C  0.52296979  0.91217240  0.79004560     0.05000
C2171       C  0.50393308  0.85422926  0.87276105     0.27400
C2172       C  0.50229885  0.86155639  0.91001063    -0.13000
C2173       C  0.49957446  0.83796588  0.93639405     0.05500
C2174       C  0.50630531  0.81144341  0.92757753    -0.09000
C2175       C  0.01216886  0.80647051  0.89114564     0.06300
C2176       C  0.00690124  0.82489299  0.86364719    -0.13400
Br2177     Br  0.56777428  0.89083552  0.82812857    -0.05400
Br2178     Br  0.96732065  0.93309818  0.85628696     0.00200
Br2179     Br  0.48343273  0.83991972  0.98377677     0.00600
Br2180     Br  0.00146690  0.80803051  0.81419469    -0.03800
Br2181     Br  0.53885005  0.89282367  0.75380343     0.00700
Br2182     Br  0.93593414  0.84801229  0.86799688    -0.03100
Br2183     Br  0.50336639  0.90333657  0.92585555    -0.03900
Br2184     Br  0.02888477  0.77592784  0.87909748     0.00000
C2185       C  0.51097644  0.68898026  0.93184773     0.01500
C2186       C  0.53450553  0.67787957  0.93607438     0.04300
C2187       C  0.54066424  0.66084493  0.90722829    -0.11800
C2188       C  0.52300712  0.65395665  0.87379822     0.23600
C2189       C  0.00232387  0.66853648  0.86859238    -0.12300
C2190       C  0.99444797  0.68364791  0.89800353     0.05000
C2191       C  0.52096807  0.62669347  0.84718257     0.27400
C2192       C  0.54530614  0.63277582  0.82168562    -0.13000
C2193       C  0.53603848  0.60935348  0.79076652     0.05500
C2194       C  0.01199988  0.57087242  0.79150554    -0.09000
C2195       C  0.99367137  0.56502107  0.82654396     0.06300
C2196       C  0.99467023  0.59238430  0.84960445    -0.13400
Br2197     Br  0.98541891  0.66879134  0.82099982    -0.05400
Br2198     Br  0.55603395  0.68290521  0.98278680     0.00200
Br2199     Br  0.53873672  0.64307776  0.75545899     0.00600
Br2200     Br  0.95566218  0.58708490  0.87677938    -0.03800
Br2201     Br  0.95922992  0.69484843  0.89179078     0.00700
Br2202     Br  0.57593012  0.65058886  0.91339443    -0.03100
Br2203     Br  0.58370787  0.67998637  0.82323345    -0.03900
Br2204     Br  0.00770074  0.56349139  0.87749415     0.00000
C2205       C  0.49329308  0.68954729  0.59474727     0.01500
C2206       C  0.51618282  0.70422257  0.62465181     0.04300
C2207       C  0.51300554  0.68397432  0.65531742    -0.11800
C2208       C  0.48685562  0.64896029  0.65707367     0.23600
C2209       C  0.96056902  0.63763967  0.63115425    -0.12300
C2210       C  0.96509611  0.65589809  0.59884189     0.05000
C2211       C  0.49006633  0.62302143  0.68110808     0.27400
C2212       C  0.51035414  0.60971651  0.67049489    -0.13000
C2213       C  0.50967183  0.58100724  0.68892364     0.05500
C2214       C  0.99567163  0.56826941  0.72526496    -0.09000
C2215       C  0.97596688  0.58588140  0.73530595     0.06300
C2216       C  0.97201332  0.61034258  0.71286170    -0.13400
Br2217     Br  0.91557720  0.60232083  0.64306948    -0.05400
Br2218     Br  0.55116183  0.75250420  0.62520688     0.00200
Br2219     Br  0.51781486  0.55676544  0.65287021     0.00600
Br2220     Br  0.94670033  0.63318477  0.72748201    -0.03800
Br2221     Br  0.93308498  0.63213607  0.55966488     0.00700
Br2222     Br  0.54113043  0.70567755  0.69733116    -0.03100
Br2223     Br  0.53366350  0.62785957  0.62418135    -0.03900
Br2224     Br  0.95868296  0.58974840  0.78201480     0.00000
C2225       C  0.91894626  0.92669652  0.72101576     0.01500
C2226       C  0.88045614  0.90634301  0.72423471     0.04300
C2227       C  0.85604876  0.89420352  0.69440173    -0.11800
C2228       C  0.86572382  0.89443801  0.65921117     0.23600
C2229       C  0.90050310  0.91099465  0.65284103    -0.12300
C2230       C  0.92453249  0.92132160  0.68302485     0.05000
C2231       C  0.84117272  0.86667489  0.63280562     0.27400
C2232       C  0.82871957  0.83085479  0.63913935    -0.13000
C2233       C  0.80899317  0.80551013  0.61258614     0.05500
C2234       C  0.79920639  0.81515013  0.58057457    -0.09000
C2235       C  0.81117807  0.85045323  0.57436412     0.06300
C2236       C  0.83107791  0.87560413  0.60064285    -0.13400
Br2237     Br  0.91233669  0.91073467  0.60115236    -0.05400
Br2238     Br  0.85003091  0.88018700  0.76242446     0.00200
Br2239     Br  0.79620801  0.75768789  0.62055630     0.00600
Br2240     Br  0.84339477  0.92216893  0.59192569    -0.03800
Br2241     Br  0.91630933  0.87590131  0.67080931     0.00700
Br2242     Br  0.80629249  0.87393070  0.69857963    -0.03100
Br2243     Br  0.83549826  0.81459755  0.68488335    -0.03900
Br2244     Br  0.80368110  0.86556027  0.52803774     0.00000
C2245       C  0.92446687  0.92415774  0.78896804     0.01500
C2246       C  0.91180876  0.88609251  0.79001494     0.04300
C2247       C  0.89141826  0.86283111  0.81864528    -0.11800
C2248       C  0.88364103  0.87517251  0.85013781     0.23600
C2249       C  0.89334668  0.90989163  0.85078329    -0.12300
C2250       C  0.90581577  0.92999123  0.81844730     0.05000
C2251       C  0.85982646  0.85100632  0.87900080     0.27400
C2252       C  0.82502282  0.82836665  0.87045208    -0.13000
C2253       C  0.80253920  0.80568438  0.89614348     0.05500
C2254       C  0.81302925  0.80675324  0.93195902    -0.09000
C2255       C  0.84703330  0.82969232  0.94180541     0.06300
C2256       C  0.87042180  0.85174859  0.91571008    -0.13400
Br2257     Br  0.88194328  0.92692022  0.89469418    -0.05400
Br2258     Br  0.90266309  0.85697400  0.74892282     0.00200
Br2259     Br  0.75676424  0.77179226  0.88192311     0.00600
Br2260     Br  0.91561763  0.88477411  0.93278506    -0.04400
Br2261     Br  0.86980868  0.93946058  0.81543793     0.00700
Br2262     Br  0.87053111  0.81190220  0.81477032    -0.03100
Br2263     Br  0.80541692  0.82900025  0.82486069    -0.03900
Br2264     Br  0.86109954  0.83198758  0.99166874     0.00000
C2265       C  0.68361881  0.68032603  0.92209303     0.01500
C2266       C  0.66978595  0.68990397  0.89311931     0.04300
C2267       C  0.65577754  0.66782941  0.86246045    -0.11800
C2268       C  0.64944156  0.63357159  0.86259682     0.23600
C2269       C  0.66607330  0.62557132  0.88951153    -0.12300
C2270       C  0.68079215  0.64729189  0.92012215     0.05000
C2271       C  0.62545924  0.60659314  0.83491396     0.27400
C2272       C  0.59142269  0.58370424  0.84266510    -0.13000
C2273       C  0.56800575  0.56068180  0.81525239     0.05500
C2274       C  0.57551036  0.56153161  0.77802350    -0.09000
C2275       C  0.61314079  0.58394607  0.77234898     0.06300
C2276       C  0.63668483  0.60352870  0.80114681    -0.13400
Br2277     Br  0.68056161  0.59336544  0.87883677    -0.05400
Br2278     Br  0.66844665  0.73241533  0.89388938     0.00200
Br2279     Br  0.52752554  0.52179453  0.82779653     0.00600
Br2280     Br  0.68600744  0.62911631  0.79546887    -0.03800
Br2281     Br  0.69467301  0.62910562  0.95973144     0.00700
Br2282     Br  0.65913405  0.68935042  0.81696435    -0.03100
Br2283     Br  0.58047828  0.58244574  0.89315858    -0.03900
Br2284     Br  0.64043241  0.60206611  0.72781007     0.00000
C2285       C  0.56498390  0.56529476  0.71302205     0.01500
C2286       C  0.58042062  0.56015078  0.67954186     0.04300
C2287       C  0.60355631  0.58814109  0.65760674    -0.11800
C2288       C  0.60350957  0.61891143  0.65662979     0.23600
C2289       C  0.58787462  0.62591546  0.68502170    -0.12300
C2290       C  0.57597708  0.60337231  0.71556796     0.05000
C2291       C  0.62421990  0.64518696  0.62836339     0.27400
C2292       C  0.65494661  0.67563883  0.63819264    -0.13000
C2293       C  0.67562960  0.69853220  0.61145718     0.05500
C2294       C  0.66851354  0.68950861  0.57459086    -0.09000
C2295       C  0.63810604  0.65961119  0.56419952     0.06300
C2296       C  0.61594003  0.63751090  0.59085734    -0.13400
Br2297     Br  0.59282748  0.67199548  0.68562981    -0.05400
Br2298     Br  0.56308710  0.52661549  0.64031704     0.00200
Br2299     Br  0.71331906  0.74319124  0.62521463     0.00600
Br2300     Br  0.57621890  0.59503590  0.57514440    -0.03800
Br2301     Br  0.60104891  0.63729855  0.75464806     0.00700
Br2302     Br  0.64085325  0.58856052  0.63283436    -0.03100
Br2303     Br  0.67199782  0.68451788  0.68740696    -0.03900
Br2304     Br  0.62704847  0.64918743  0.51327533     0.00000
loop_ 
_geom_bond_atom_site_label_1 
_geom_bond_atom_site_label_2 
_geom_bond_distance 
_geom_bond_site_symmetry_2 
_ccdc_geom_bond_type 
O1           Ni9   1.936       .  S
O1           C11   1.285       .  A
O2         Ni297   1.928       .  S
O2           C12   1.282       .  A
O3           Ni9   1.910       .  S
O3           C13   1.279       .  A
O4         Ni297   1.914       .  S
O4           C14   1.282       .  A
O5          Ni10   1.917       .  S
O5           C14   1.278       .  A
O6         Ni298   1.915   1_554  S
O6           C13   1.281       .  A
O7          Ni10   1.931       .  S
O7           C12   1.284       .  A
O8         Ni298   1.923   1_554  S
O8           C11   1.280       .  A
Ni9         O290   1.928   1_554  S
Ni9         O292   1.913   1_554  S
Ni9        Ni298   2.383   1_554  S
Ni10        O294   1.915       .  S
Ni10        O296   1.924       .  S
Ni10       Ni297   2.383       .  S
C11         C278   1.487       .  S
C12         C238   1.491       .  S
C13         C218   1.487       .  S
C14         C249   1.493       .  S
O15        Ni311   1.913       .  S
O15        C1177   1.281       .  A
O16         Ni23   1.921       .  S
O16        C1178   1.281       .  A
O17        Ni311   1.930       .  S
O17        C1179   1.283       .  A
O18         Ni23   1.923       .  S
O18        C1180   1.281       .  A
O19         Ni24   1.943       .  S
O19          C28   1.286       .  A
O20        Ni312   1.943       .  S
O20          C27   1.286   1_455  A
O21         Ni24   1.916       .  S
O21          C26   1.281       .  A
O22        Ni312   1.923       .  S
O22          C25   1.281   1_455  A
Ni23        O303   1.913       .  S
Ni23        O305   1.930       .  S
Ni23      Ni1176   2.380       .  S
Ni24        O308   1.944       .  S
Ni24        O310   1.924       .  S
Ni24      Ni1175   2.380   1_455  S
C25        O1167   1.281       .  A
C25         C138   1.491       .  S
C26        O1168   1.281   1_455  A
C26         C169   1.484       .  S
C27        O1169   1.283       .  A
C27         C189   1.518       .  S
C28        O1170   1.281   1_455  A
C28         C158   1.491       .  S
O29         Ni37   1.926       .  S
O29          C39   1.282       .  A
O30        Ni325   1.940   1_554  S
O30          C40   1.286       .  A
O31         Ni37   1.922       .  S
O31          C41   1.281       .  A
O32        Ni325   1.936   1_554  S
O32          C42   1.284       .  A
O33        Ni326   1.937   1_554  S
O33         C618   1.285       .  A
O34         Ni38   1.916       .  S
O34         C617   1.281       .  A
O35        Ni326   1.914   1_554  S
O35         C616   1.279       .  A
O36         Ni38   1.907       .  S
O36         C615   1.280       .  A
Ni37        O318   1.939       .  S
Ni37        O320   1.936       .  S
Ni37       Ni614   2.383   1_545  S
Ni38        O321   1.937       .  S
Ni38        O323   1.915       .  S
Ni38       Ni613   2.383       .  S
C39         O612   1.280   1_545  A
C39          C89   1.481       .  S
C40         O611   1.278   1_545  A
C40          C49   1.487       .  S
C41         O610   1.282   1_545  A
C41          C69   1.500       .  S
C42         O609   1.285   1_545  A
C42         C118   1.503       .  S
C43          C48   2.047       .  S
C43        C1774   2.016       .  S
C43        C1281   1.654       .  S
C43        C1301   1.752       .  S
C44          C47   1.982   1_545  S
C44        C1197   2.014       .  S
C44         C178   1.794       .  S
C44         C198   1.758       .  S
C45          C46   1.995   1_545  S
C45        C1196   2.013       .  S
C45         C258   1.684       .  S
C45         C269   1.728       .  S
C46        C1771   2.011   1_455  S
C46          C98   1.817       .  S
C46         C109   1.785       .  S
C47         C624   1.984       .  S
C47          C58   1.792       .  S
C47          C78   1.747   1_565  S
C48         C623   1.983       .  S
C48         C209   1.815       .  S
C48         C229   1.762       .  S
C49          C54   1.395       .  A
C49         C626   1.407       .  A
C50          C51   1.418       .  A
C50         C625   1.405       .  A
C50         Br62   1.934       .  S
C51         C628   1.434       .  A
C51         Br66   1.935       .  S
C52          C55   1.550       .  S
C52          C53   1.438       .  A
C52         C627   1.434       .  A
C53          C54   1.412       .  A
C53         Br61   1.914       .  S
C54         Br65   1.939       .  S
C55          C60   1.409       .  A
C55         C632   1.401   1_545  A
C56          C57   1.464       .  A
C56         C631   1.399       .  A
C56         Br67   1.968       .  S
C57         C634   1.522       .  A
C57         Br63   1.922       .  S
C58          C59   1.462   1_565  A
C58         C633   1.525       .  A
C59          C60   1.454       .  A
C59         Br68   1.930   1_545  S
C60         Br64   1.939       .  S
C69          C70   1.421       .  A
C69         C650   1.421   1_545  A
C70          C71   1.409       .  A
C70         Br82   1.930       .  S
C71          C72   1.406       .  A
C71         Br86   1.927       .  S
C72          C75   1.514       .  S
C72         C649   1.414   1_545  A
C73          C74   1.412       .  A
C73         C648   1.415       .  A
C73         Br81   1.926       .  S
C74         C645   1.422       .  A
C74         Br85   1.939       .  S
C75          C76   1.371       .  A
C75         C656   1.388       .  A
C76          C77   1.442       .  A
C76         Br87   1.963       .  S
C77          C78   1.510       .  A
C77         Br83   1.936       .  S
C78         C655   1.479       .  A
C79          C80   1.453       .  A
C79         C654   1.479       .  A
C79         Br88   1.872       .  S
C80         C651   1.390       .  A
C80         Br84   1.966       .  S
C89          C94   1.412       .  A
C89         C666   1.406   1_545  A
C90          C91   1.402       .  A
C90         C665   1.404       .  A
C90        Br102   1.941       .  S
C91         C668   1.422       .  A
C91        Br106   1.920       .  S
C92          C95   1.523       .  S
C92          C93   1.418   1_565  A
C92         C667   1.420       .  A
C93          C94   1.415       .  A
C93        Br101   1.926       .  S
C94        Br105   1.933       .  S
C95         C100   1.389   1_565  A
C95         C672   1.384       .  A
C96          C97   1.464       .  A
C96         C671   1.384       .  A
C96        Br107   1.993       .  S
C97         C674   1.540       .  A
C97        Br103   1.932       .  S
C98          C99   1.466       .  A
C98         C673   1.545       .  A
C99         C100   1.438   1_565  A
C99        Br108   1.899       .  S
C100       Br104   1.957       .  S
C109        C114   1.523   1_565  A
C109        C686   1.499       .  A
C110        C111   1.456       .  A
C110        C685   1.499       .  A
C110       Br122   1.903       .  S
C111        C688   1.388       .  A
C111       Br126   1.969       .  S
C112        C115   1.556       .  S
C112        C113   1.404       .  A
C112        C687   1.389   1_545  A
C113        C114   1.466       .  A
C113       Br121   1.969       .  S
C114       Br125   1.985       .  S
C115        C120   1.438       .  A
C115        C692   1.429   1_545  A
C116        C117   1.418       .  A
C116        C691   1.428       .  A
C116       Br127   1.912       .  S
C117        C694   1.405       .  A
C117       Br123   1.935       .  S
C118        C119   1.411       .  A
C118        C693   1.404   1_545  A
C119        C120   1.423       .  A
C119       Br128   1.936       .  S
C120       Br124   1.937       .  S
C129       C1195   1.655       .  S
C129        C130   1.495       .  A
C129       C1286   1.407       .  A
C130        C131   1.436       .  A
C130       Br142   1.987       .  S
C131        C132   1.417       .  A
C131       Br146   1.966       .  S
C132        C135   1.547       .  S
C132       C1285   1.440       .  A
C133        C134   1.439       .  A
C133       C1284   1.441       .  A
C133       Br141   1.914       .  S
C134       C1281   1.406       .  A
C134       Br145   1.879       .  S
C135        C136   1.419   1_655  A
C135       C1292   1.438       .  A
C136        C137   1.405       .  A
C136       Br147   1.925       .  S
C137        C138   1.411   1_455  A
C137       Br143   1.932       .  S
C138       C1291   1.409       .  A
C139        C140   1.414       .  A
C139       C1290   1.409       .  A
C139       Br148   1.943       .  S
C140       C1287   1.438       .  A
C140       Br144   1.932       .  S
C149       C1195   1.752   1_455  S
C149        C154   1.509       .  A
C149       C1302   1.470   1_455  A
C150        C151   1.444       .  A
C150       C1301   1.470       .  A
C150       Br162   1.888       .  S
C151       C1304   1.386       .  A
C151       Br166   1.918       .  S
C152        C155   1.525       .  S
C152        C153   1.376       .  A
C152       C1303   1.386   1_455  A
C153        C154   1.440       .  A
C153       Br161   1.947       .  S
C154       Br165   1.912       .  S
C155        C156   1.415       .  A
C155       C1312   1.424       .  A
C156        C157   1.408   1_455  A
C156       Br167   1.920       .  S
C157        C158   1.405   1_655  A
C157       Br163   1.920       .  S
C158       C1311   1.409       .  A
C159        C160   1.419       .  A
C159       C1310   1.409       .  A
C159       Br168   1.926       .  S
C160       C1307   1.424       .  A
C160       Br164   1.929       .  S
C169        C170   1.409       .  A
C169       C1326   1.414   1_455  A
C170        C171   1.409       .  A
C170       Br182   1.935       .  S
C171        C172   1.414       .  A
C171       Br186   1.911       .  S
C172        C175   1.514       .  S
C172       C1325   1.412       .  A
C173        C174   1.410       .  A
C173       C1324   1.412       .  A
C173       Br181   1.921       .  S
C174       C1321   1.413       .  A
C174       Br185   1.933       .  S
C175        C176   1.380       .  A
C175       C1332   1.404   1_455  A
C176        C177   1.443       .  A
C176       Br187   1.946       .  S
C177       C1330   1.511       .  A
C177       Br183   1.969       .  S
C178        C179   1.489       .  A
C178       C1329   1.510       .  A
C179        C180   1.460       .  A
C179       Br188   1.989       .  S
C180       C1327   1.404       .  A
C180       Br184   1.960       .  S
C189        C190   1.426   1_655  A
C189       C1346   1.422       .  A
C190        C191   1.421       .  A
C190       Br202   1.931       .  S
C191        C192   1.411   1_455  A
C191       Br206   1.921       .  S
C192        C195   1.532       .  S
C192       C1345   1.408       .  A
C193        C194   1.412       .  A
C193       C1344   1.408       .  A
C193       Br201   1.917       .  S
C194       C1341   1.422       .  A
C194       Br205   1.933       .  S
C195        C196   1.387   1_655  A
C195       C1352   1.383       .  A
C196        C197   1.447       .  A
C196       Br207   1.972       .  S
C197       C1350   1.475   1_455  A
C197       Br203   1.852       .  S
C198        C199   1.514       .  A
C198       C1349   1.475       .  A
C199        C200   1.464       .  A
C199       Br208   1.939       .  S
C200       C1347   1.383       .  A
C200       Br204   1.969       .  S
C209        C210   1.535       .  A
C209        C214   1.465       .  A
C210        C211   1.463       .  A
C210       Br222   1.930       .  S
C211        C212   1.375       .  A
C211       Br226   1.989       .  S
C212        C215   1.527       .  S
C212        C213   1.399       .  A
C213        C214   1.462       .  A
C213       Br221   1.978       .  S
C214       Br225   1.916       .  S
C215        C216   1.427       .  A
C215        C220   1.413       .  A
C216        C217   1.411       .  A
C216       Br227   1.933       .  S
C217        C218   1.412       .  A
C217       Br223   1.938       .  S
C218        C219   1.410       .  A
C219        C220   1.406       .  A
C219       Br228   1.942       .  S
C220       Br224   1.896       .  S
C229        C230   1.498       .  A
C229        C234   1.478       .  A
C230        C231   1.463       .  A
C230       Br242   1.879       .  S
C231        C232   1.397       .  A
C231       Br246   1.970       .  S
C232        C235   1.529       .  S
C232        C233   1.379       .  A
C233        C234   1.442       .  A
C233       Br241   1.951       .  S
C234       Br245   1.896       .  S
C235        C236   1.417       .  A
C235        C240   1.426       .  A
C236        C237   1.404       .  A
C236       Br247   1.913       .  S
C237        C238   1.402       .  A
C237       Br243   1.922       .  S
C238        C239   1.411       .  A
C239        C240   1.420       .  A
C239       Br248   1.933       .  S
C240       Br244   1.923       .  S
C249        C250   1.418       .  A
C249        C254   1.414       .  A
C250        C251   1.408       .  A
C250       Br262   1.933       .  S
C251        C252   1.411       .  A
C251       Br266   1.921       .  S
C252        C255   1.517       .  S
C252        C253   1.405       .  A
C253        C254   1.400       .  A
C253       Br261   1.911       .  S
C254       Br265   1.932       .  S
C255        C256   1.403       .  A
C255        C260   1.377       .  A
C256        C257   1.443       .  A
C256       Br267   1.929       .  S
C257        C258   1.415       .  A
C257       Br263   1.875       .  S
C258        C259   1.508       .  A
C259        C260   1.434       .  A
C259       Br268   1.984       .  S
C260       Br264   1.969       .  S
C269        C270   1.497       .  A
C269        C274   1.516       .  A
C270        C271   1.429       .  A
C270       Br282   1.929       .  S
C271        C272   1.380       .  A
C271       Br286   1.928       .  S
C272        C275   1.514       .  S
C272        C273   1.387       .  A
C273        C274   1.439       .  A
C273       Br281   1.955       .  S
C274       Br285   1.967       .  S
C275        C276   1.420       .  A
C275        C280   1.420       .  A
C276        C277   1.412       .  A
C276       Br287   1.930       .  S
C277        C278   1.407       .  A
C277       Br283   1.924       .  S
C278        C279   1.408       .  A
C279        C280   1.413       .  A
C279       Br288   1.930       .  S
C280       Br284   1.930       .  S
O289       Ni297   1.937       .  S
O289        C299   1.285       .  A
O290        C300   1.282       .  A
O291       Ni297   1.910       .  S
O291        C301   1.279       .  A
O292        C302   1.282       .  A
O293       Ni298   1.916       .  S
O293        C302   1.278       .  A
O294        C301   1.281       .  A
O295       Ni298   1.931       .  S
O295        C300   1.284       .  A
O296        C299   1.280       .  A
C299        C566   1.488       .  S
C300        C526   1.491       .  S
C301        C506   1.487       .  S
C302        C537   1.492       .  S
O303       C1465   1.281       .  A
O304       Ni311   1.921   1_556  S
O304       C1466   1.281       .  A
O305       C1467   1.283       .  A
O306       Ni311   1.923   1_556  S
O306       C1468   1.281       .  A
O307       Ni312   1.943   1_556  S
O307        C316   1.286       .  A
O308        C315   1.286       .  A
O309       Ni312   1.915   1_556  S
O309        C314   1.281       .  A
O310        C313   1.281   1_455  A
Ni311     Ni1464   2.380       .  S
Ni312     Ni1463   2.380   1_455  S
C313       O1455   1.281       .  A
C313        C426   1.490       .  S
C314       O1456   1.281   1_455  A
C314        C457   1.483       .  S
C315       O1457   1.283   1_455  A
C315        C477   1.518   1_455  S
C316       O1458   1.281   1_455  A
C316        C446   1.491       .  S
O317       Ni325   1.926       .  S
O317        C327   1.282       .  A
O318        C328   1.286       .  A
O319       Ni325   1.922       .  S
O319        C329   1.281       .  A
O320        C330   1.284       .  A
O321        C906   1.285       .  A
O322       Ni326   1.917       .  S
O322        C905   1.281       .  A
O323        C904   1.279       .  A
O324       Ni326   1.908       .  S
O324        C903   1.280       .  A
Ni325      Ni902   2.383   1_545  S
Ni326      Ni901   2.384       .  S
C327        O900   1.279   1_545  A
C327        C377   1.481       .  S
C328        O899   1.278   1_545  A
C328        C337   1.487       .  S
C329        O898   1.282   1_545  A
C329        C357   1.500       .  S
C330        O897   1.285   1_545  A
C330        C406   1.504       .  S
C331       C2062   2.016       .  S
C331        C336   2.047       .  S
C331       C1569   1.653       .  S
C331       C1589   1.751       .  S
C332       C1485   2.013       .  S
C332        C335   1.982   1_545  S
C332        C466   1.793       .  S
C332        C486   1.758       .  S
C333       C1484   2.013       .  S
C333        C334   1.995   1_545  S
C333        C546   1.685       .  S
C333        C557   1.729       .  S
C334       C2059   2.011   1_455  S
C334        C386   1.816       .  S
C334        C397   1.785       .  S
C335        C912   1.984       .  S
C335        C346   1.792       .  S
C335        C366   1.748   1_565  S
C336        C911   1.984       .  S
C336        C497   1.815       .  S
C336        C517   1.764       .  S
C337        C914   1.406       .  A
C337        C342   1.395       .  A
C338        C913   1.406       .  A
C338        C339   1.418       .  A
C338       Br350   1.933       .  S
C339        C916   1.434       .  A
C339       Br354   1.935       .  S
C340        C343   1.550       .  S
C340        C915   1.435       .  A
C340        C341   1.438       .  A
C341        C342   1.412       .  A
C341       Br349   1.914       .  S
C342       Br353   1.940       .  S
C343        C920   1.401   1_545  A
C343        C348   1.409       .  A
C344        C919   1.400       .  A
C344        C345   1.464       .  A
C344       Br355   1.968       .  S
C345        C922   1.522       .  A
C345       Br351   1.922       .  S
C346        C921   1.525       .  A
C346        C347   1.462   1_565  A
C347        C348   1.454       .  A
C347       Br356   1.930   1_545  S
C348       Br352   1.939       .  S
C357        C358   1.421       .  A
C357        C938   1.421   1_545  A
C358        C359   1.408       .  A
C358       Br370   1.930       .  S
C359        C360   1.406       .  A
C359       Br374   1.927       .  S
C360        C363   1.514       .  S
C360        C937   1.414   1_545  A
C361        C936   1.415       .  A
C361        C362   1.413       .  A
C361       Br369   1.925       .  S
C362        C933   1.421       .  A
C362       Br373   1.939       .  S
C363        C364   1.371       .  A
C363        C944   1.388       .  A
C364        C365   1.441       .  A
C364       Br375   1.964       .  S
C365        C366   1.510       .  A
C365       Br371   1.936       .  S
C366        C943   1.480       .  A
C367        C942   1.478       .  A
C367        C368   1.453       .  A
C367       Br376   1.871       .  S
C368        C939   1.391       .  A
C368       Br372   1.966       .  S
C377        C954   1.406   1_545  A
C377        C382   1.411       .  A
C378        C953   1.404       .  A
C378        C379   1.403       .  A
C378       Br390   1.941       .  S
C379        C956   1.423       .  A
C379       Br394   1.921       .  S
C380        C383   1.522       .  S
C380        C955   1.420       .  A
C380        C381   1.418   1_565  A
C381        C382   1.414       .  A
C381       Br389   1.926       .  S
C382       Br393   1.933       .  S
C383        C960   1.384       .  A
C383        C388   1.389   1_565  A
C384        C959   1.384       .  A
C384        C385   1.464       .  A
C384       Br395   1.994       .  S
C385        C962   1.540       .  A
C385       Br391   1.934       .  S
C386        C961   1.544       .  A
C386        C387   1.465       .  A
C387        C388   1.438   1_565  A
C387       Br396   1.898       .  S
C388       Br392   1.958       .  S
C397        C974   1.499       .  A
C397        C402   1.523   1_565  A
C398        C973   1.499       .  A
C398        C399   1.457       .  A
C398       Br410   1.904       .  S
C399        C976   1.389       .  A
C399       Br414   1.973       .  S
C400        C403   1.556       .  S
C400        C975   1.389   1_545  A
C400        C401   1.404       .  A
C401        C402   1.466       .  A
C401       Br409   1.970       .  S
C402       Br413   1.984       .  S
C403        C980   1.429   1_545  A
C403        C408   1.438       .  A
C404        C979   1.427       .  A
C404        C405   1.418       .  A
C404       Br415   1.912       .  S
C405        C982   1.406       .  A
C405       Br411   1.934       .  S
C406        C981   1.405   1_545  A
C406        C407   1.410       .  A
C407        C408   1.423       .  A
C407       Br416   1.936       .  S
C408       Br412   1.936       .  S
C417       C1483   1.654       .  S
C417        C418   1.494       .  A
C417       C1574   1.406       .  A
C418        C419   1.435       .  A
C418       Br430   1.985       .  S
C419        C420   1.416       .  A
C419       Br434   1.967   1_655  S
C420        C423   1.546       .  S
C420       C1573   1.441       .  A
C421       C1572   1.441       .  A
C421        C422   1.439       .  A
C421       Br429   1.914       .  S
C422       C1569   1.406       .  A
C422       Br433   1.879       .  S
C423        C424   1.418   1_655  A
C423       C1580   1.438       .  A
C424        C425   1.406       .  A
C424       Br435   1.924       .  S
C425        C426   1.410   1_455  A
C425       Br431   1.931       .  S
C426       C1579   1.409       .  A
C427       C1578   1.409       .  A
C427        C428   1.413       .  A
C427       Br436   1.943       .  S
C428       C1575   1.437       .  A
C428       Br432   1.932       .  S
C437       C1483   1.750   1_455  S
C437       C1590   1.469   1_455  A
C437        C442   1.508       .  A
C438       C1589   1.470       .  A
C438        C439   1.444       .  A
C438       Br450   1.887       .  S
C439       C1592   1.386       .  A
C439       Br454   1.917       .  S
C440        C443   1.524       .  S
C440       C1591   1.385   1_455  A
C440        C441   1.376       .  A
C441        C442   1.440       .  A
C441       Br449   1.947       .  S
C442       Br453   1.910       .  S
C443        C444   1.415       .  A
C443       C1600   1.423       .  A
C444        C445   1.408   1_455  A
C444       Br455   1.921       .  S
C445        C446   1.405   1_655  A
C445       Br451   1.920       .  S
C446       C1599   1.409       .  A
C447       C1598   1.409       .  A
C447        C448   1.419       .  A
C447       Br456   1.926       .  S
C448       C1595   1.424       .  A
C448       Br452   1.929       .  S
C457        C458   1.409       .  A
C457       C1614   1.413   1_455  A
C458        C459   1.409       .  A
C458       Br470   1.935       .  S
C459        C460   1.413       .  A
C459       Br474   1.911       .  S
C460        C463   1.512       .  S
C460       C1613   1.411       .  A
C461       C1612   1.412       .  A
C461        C462   1.410       .  A
C461       Br469   1.921       .  S
C462       C1609   1.414       .  A
C462       Br473   1.933       .  S
C463        C464   1.380       .  A
C463       C1620   1.404   1_455  A
C464        C465   1.442       .  A
C464       Br475   1.947       .  S
C465       C1618   1.510       .  A
C465       Br471   1.969       .  S
C466       C1617   1.510       .  A
C466        C467   1.489       .  A
C467        C468   1.460       .  A
C467       Br476   1.988       .  S
C468       C1615   1.404       .  A
C468       Br472   1.961       .  S
C477        C478   1.426   1_655  A
C477       C1634   1.422       .  A
C478        C479   1.421       .  A
C478       Br490   1.931       .  S
C479        C480   1.411   1_455  A
C479       Br494   1.921       .  S
C480        C483   1.532       .  S
C480       C1633   1.408       .  A
C481       C1632   1.408       .  A
C481        C482   1.412       .  A
C481       Br489   1.917       .  S
C482       C1629   1.422       .  A
C482       Br493   1.934       .  S
C483        C484   1.387   1_655  A
C483       C1640   1.383       .  A
C484        C485   1.447       .  A
C484       Br495   1.972       .  S
C485       C1638   1.474   1_455  A
C485       Br491   1.852       .  S
C486       C1637   1.474       .  A
C486        C487   1.514       .  A
C487        C488   1.464       .  A
C487       Br496   1.939       .  S
C488       C1635   1.383       .  A
C488       Br492   1.969       .  S
C497        C498   1.535       .  A
C497        C502   1.465       .  A
C498        C499   1.463       .  A
C498       Br510   1.930       .  S
C499        C500   1.375       .  A
C499       Br514   1.989       .  S
C500        C503   1.527       .  S
C500        C501   1.399       .  A
C501        C502   1.462       .  A
C501       Br509   1.979       .  S
C502       Br513   1.917       .  S
C503        C504   1.427       .  A
C503        C508   1.412       .  A
C504        C505   1.411       .  A
C504       Br515   1.933       .  S
C505        C506   1.412       .  A
C505       Br511   1.938       .  S
C506        C507   1.410       .  A
C507        C508   1.406       .  A
C507       Br516   1.942       .  S
C508       Br512   1.896       .  S
C517        C518   1.498       .  A
C517        C522   1.479       .  A
C518        C519   1.464       .  A
C518       Br530   1.879       .  S
C519        C520   1.397       .  A
C519       Br534   1.971       .  S
C520        C523   1.530       .  S
C520        C521   1.379       .  A
C521        C522   1.442       .  A
C521       Br529   1.951       .  S
C522       Br533   1.897       .  S
C523        C524   1.417       .  A
C523        C528   1.426       .  A
C524        C525   1.405       .  A
C524       Br535   1.913       .  S
C525        C526   1.402       .  A
C525       Br531   1.923       .  S
C526        C527   1.411       .  A
C527        C528   1.420       .  A
C527       Br536   1.933       .  S
C528       Br532   1.923       .  S
C537        C538   1.418       .  A
C537        C542   1.413       .  A
C538        C539   1.408       .  A
C538       Br550   1.933       .  S
C539        C540   1.411       .  A
C539       Br554   1.921       .  S
C540        C543   1.517       .  S
C540        C541   1.405       .  A
C541        C542   1.400       .  A
C541       Br549   1.910       .  S
C542       Br553   1.933       .  S
C543        C544   1.403       .  A
C543        C548   1.377       .  A
C544        C545   1.443       .  A
C544       Br555   1.930       .  S
C545        C546   1.415       .  A
C545       Br551   1.875       .  S
C546        C547   1.508       .  A
C547        C548   1.434       .  A
C547       Br556   1.984       .  S
C548       Br552   1.969       .  S
C557        C558   1.497       .  A
C557        C562   1.516       .  A
C558        C559   1.429       .  A
C558       Br570   1.929       .  S
C559        C560   1.380       .  A
C559       Br574   1.928       .  S
C560        C563   1.515       .  S
C560        C561   1.387       .  A
C561        C562   1.440       .  A
C561       Br569   1.955       .  S
C562       Br573   1.967       .  S
C563        C564   1.420       .  A
C563        C568   1.420       .  A
C564        C565   1.412       .  A
C564       Br575   1.930       .  S
C565        C566   1.407       .  A
C565       Br571   1.925       .  S
C566        C567   1.408       .  A
C567        C568   1.413       .  A
C567       Br576   1.930       .  S
C568       Br572   1.929       .  S
O577       Ni585   1.931       .  S
O577        C587   1.284       .  A
O578       Ni873   1.924       .  S
O578        C588   1.280       .  A
O579       Ni585   1.905       .  S
O579        C589   1.278       .  A
O580       Ni873   1.910       .  S
O580        C590   1.282       .  A
O581       Ni586   1.921       .  S
O581        C590   1.279       .  A
O582       Ni874   1.910   1_554  S
O582        C589   1.281       .  A
O583       Ni586   1.924       .  S
O583        C588   1.283       .  A
O584       Ni874   1.915   1_554  S
O584        C587   1.278       .  A
Ni585       O866   1.924   1_554  S
Ni585       O868   1.910   1_554  S
Ni585      Ni874   2.384   1_554  S
Ni586       O870   1.911       .  S
Ni586       O872   1.915       .  S
Ni586      Ni873   2.384       .  S
C587        C854   1.478       .  S
C588        C814   1.483       .  S
C589        C794   1.478       .  S
C590        C825   1.499       .  S
O591       Ni887   1.909       .  S
O591       C1753   1.281       .  A
O592       Ni599   1.918       .  S
O592       C1754   1.280       .  A
O593       Ni887   1.931       .  S
O593       C1755   1.284       .  A
O594       Ni599   1.921       .  S
O594       C1756   1.281       .  A
O595       Ni600   1.936       .  S
O595        C604   1.284       .  A
O596       Ni888   1.938       .  S
O596        C603   1.285   1_455  A
O597       Ni600   1.920       .  S
O597        C602   1.283       .  A
O598       Ni888   1.924       .  S
O598        C601   1.280   1_455  A
Ni599       O879   1.909       .  S
Ni599       O881   1.930       .  S
Ni599     Ni1752   2.378       .  S
Ni600       O884   1.939       .  S
Ni600       O886   1.925       .  S
Ni600     Ni1751   2.378   1_455  S
C601       O1743   1.281       .  A
C601        C714   1.496       .  S
C602       O1744   1.280   1_455  A
C602        C745   1.487       .  S
C603       O1745   1.283       .  A
C603        C765   1.513       .  S
C604       O1746   1.281   1_455  A
C604        C734   1.484       .  S
O605       Ni613   1.918       .  S
O605        C615   1.280       .  A
O606       Ni901   1.931   1_554  S
O606        C616   1.284       .  A
O607       Ni613   1.924       .  S
O607        C617   1.282       .  A
O608       Ni901   1.938   1_554  S
O608        C618   1.285       .  A
O609       Ni902   1.937   1_554  S
O610       Ni614   1.920       .  S
O611       Ni902   1.912   1_554  S
O612       Ni614   1.908       .  S
Ni613       O894   1.933       .  S
Ni613       O896   1.939       .  S
Ni614       O897   1.938       .  S
Ni614       O899   1.912       .  S
C615        C665   1.476       .  S
C616        C625   1.482       .  S
C617        C645   1.499       .  S
C618        C694   1.504       .  S
C619       C1198   2.011       .  S
C619        C624   2.050       .  S
C619       C1857   1.658       .  S
C619       C1877   1.751       .  S
C620       C1773   2.017       .  S
C620        C623   1.988       .  S
C620        C754   1.802       .  S
C620        C774   1.762       .  S
C621       C1772   2.017       .  S
C621        C622   1.996       .  S
C621        C834   1.696       .  S
C621        C845   1.724       .  S
C622       C1195   2.016   1_455  S
C622        C674   1.809       .  S
C622        C685   1.788       .  S
C623        C634   1.786       .  S
C623        C654   1.741       .  S
C624        C785   1.801       .  S
C624        C805   1.760       .  S
C625        C630   1.394       .  A
C626        C627   1.420       .  A
C626       Br638   1.935   1_545  S
C627       Br642   1.935   1_545  S
C628        C631   1.545       .  S
C628        C629   1.437       .  A
C629        C630   1.410       .  A
C629       Br637   1.913       .  S
C630       Br641   1.940       .  S
C631        C636   1.408       .  A
C632        C633   1.466       .  A
C632       Br643   1.969       .  S
C633       Br639   1.926       .  S
C634        C635   1.461       .  A
C635        C636   1.452       .  A
C635       Br644   1.930       .  S
C636       Br640   1.937       .  S
C645        C646   1.419       .  A
C646        C647   1.406       .  A
C646       Br658   1.928       .  S
C647        C648   1.405       .  A
C647       Br662   1.927       .  S
C648        C651   1.513       .  S
C649        C650   1.412       .  A
C649       Br657   1.926       .  S
C650       Br661   1.938       .  S
C651        C652   1.370       .  A
C652        C653   1.438       .  A
C652       Br663   1.964       .  S
C653        C654   1.507       .  A
C653       Br659   1.934       .  S
C655        C656   1.454       .  A
C655       Br664   1.862   1_545  S
C656       Br660   1.971       .  S
C665        C670   1.411       .  A
C666        C667   1.405       .  A
C666       Br678   1.939       .  S
C667       Br682   1.917       .  S
C668        C671   1.518       .  S
C668        C669   1.420       .  A
C669        C670   1.413       .  A
C669       Br677   1.930       .  S
C670       Br681   1.934       .  S
C671        C676   1.388       .  A
C672        C673   1.467       .  A
C672       Br683   1.991       .  S
C673       Br679   1.936       .  S
C674        C675   1.460       .  A
C675        C676   1.433       .  A
C675       Br684   1.900       .  S
C676       Br680   1.952       .  S
C685        C690   1.521       .  A
C686        C687   1.456       .  A
C686       Br698   1.908       .  S
C687       Br702   1.961       .  S
C688        C691   1.553       .  S
C688        C689   1.404       .  A
C689        C690   1.466       .  A
C689       Br697   1.967       .  S
C690       Br701   1.981       .  S
C691        C696   1.434       .  A
C692        C693   1.418       .  A
C692       Br703   1.915       .  S
C693       Br699   1.934       .  S
C694        C695   1.412       .  A
C695        C696   1.423       .  A
C695       Br704   1.934       .  S
C696       Br700   1.933       .  S
C705       C1771   1.659       .  S
C705        C706   1.499       .  A
C705       C1862   1.407       .  A
C706        C707   1.443       .  A
C706       Br718   1.999       .  S
C707        C708   1.420       .  A
C707       Br722   1.961       .  S
C708        C711   1.544       .  S
C708       C1861   1.437       .  A
C709       C1860   1.437       .  A
C709        C710   1.438       .  A
C709       Br717   1.914       .  S
C710       C1857   1.407       .  A
C710       Br721   1.873       .  S
C711        C712   1.415   1_655  A
C711       C1868   1.434       .  A
C712        C713   1.404       .  A
C712       Br723   1.923       .  S
C713        C714   1.414   1_455  A
C713       Br719   1.932       .  S
C714       C1867   1.415       .  A
C715       C1866   1.415       .  A
C715        C716   1.415       .  A
C715       Br724   1.945       .  S
C716       C1863   1.434       .  A
C716       Br720   1.925       .  S
C725       C1771   1.751       .  S
C725       C1878   1.471       .  A
C725        C730   1.513   1_655  A
C726       C1877   1.471       .  A
C726        C727   1.442       .  A
C726       Br738   1.884       .  S
C727       C1880   1.383       .  A
C727       Br742   1.921       .  S
C728        C731   1.520       .  S
C728       C1879   1.383   1_455  A
C728        C729   1.375       .  A
C729        C730   1.441       .  A
C729       Br737   1.957       .  S
C730       Br741   1.915       .  S
C731        C732   1.418       .  A
C731       C1888   1.421       .  A
C732        C733   1.406   1_455  A
C732       Br743   1.927       .  S
C733        C734   1.403   1_655  A
C733       Br739   1.917       .  S
C734       C1887   1.406       .  A
C735       C1886   1.406       .  A
C735        C736   1.413       .  A
C735       Br744   1.923       .  S
C736       C1883   1.421       .  A
C736       Br740   1.929       .  S
C745        C746   1.408       .  A
C745       C1902   1.415   1_455  A
C746        C747   1.410       .  A
C746       Br758   1.937       .  S
C747        C748   1.416       .  A
C747       Br762   1.907       .  S
C748        C751   1.519       .  S
C748       C1901   1.412       .  A
C749       C1900   1.412       .  A
C749        C750   1.410       .  A
C749       Br757   1.921       .  S
C750       C1897   1.415       .  A
C750       Br761   1.933       .  S
C751        C752   1.382       .  A
C751       C1908   1.407   1_455  A
C752        C753   1.446       .  A
C752       Br763   1.951       .  S
C753       C1906   1.511       .  A
C753       Br759   1.967       .  S
C754       C1905   1.511       .  A
C754        C755   1.496       .  A
C755        C756   1.461       .  A
C755       Br764   1.999       .  S
C756       C1903   1.407       .  A
C756       Br760   1.962       .  S
C765        C766   1.423   1_655  A
C765       C1922   1.418       .  A
C766        C767   1.422       .  A
C766       Br778   1.932       .  S
C767        C768   1.414   1_455  A
C767       Br782   1.920       .  S
C768        C771   1.538       .  S
C768       C1921   1.412       .  A
C769       C1920   1.412       .  A
C769        C770   1.412       .  A
C769       Br777   1.917       .  S
C770       C1917   1.418       .  A
C770       Br781   1.934       .  S
C771        C772   1.389   1_655  A
C771       C1928   1.385       .  A
C772        C773   1.450       .  A
C772       Br783   1.973       .  S
C773       C1926   1.478   1_455  A
C773       Br779   1.856       .  S
C774       C1925   1.478       .  A
C774        C775   1.513       .  A
C775        C776   1.466       .  A
C775       Br784   1.940       .  S
C776       C1923   1.385       .  A
C776       Br780   1.967       .  S
C785        C786   1.529       .  A
C785        C790   1.463       .  A
C786        C787   1.457       .  A
C786       Br798   1.925       .  S
C787        C788   1.372       .  A
C787       Br802   1.992       .  S
C788        C791   1.517       .  S
C788        C789   1.400       .  A
C789        C790   1.460       .  A
C789       Br797   1.984       .  S
C790       Br801   1.917       .  S
C791        C792   1.428       .  A
C791        C796   1.409       .  A
C792        C793   1.410       .  A
C792       Br803   1.935       .  S
C793        C794   1.412       .  A
C793       Br799   1.940       .  S
C794        C795   1.409       .  A
C795        C796   1.400       .  A
C795       Br804   1.941       .  S
C796       Br800   1.897       .  S
C805        C806   1.497       .  A
C805        C810   1.484       .  A
C806        C807   1.459       .  A
C806       Br818   1.885       .  S
C807        C808   1.401       .  A
C807       Br822   1.978       .  S
C808        C811   1.531       .  S
C808        C809   1.382       .  A
C809        C810   1.441       .  A
C809       Br817   1.960       .  S
C810       Br821   1.906       .  S
C811        C812   1.423       .  A
C811        C816   1.433       .  A
C812        C813   1.403       .  A
C812       Br823   1.913       .  S
C813        C814   1.397       .  A
C813       Br819   1.933       .  S
C814        C815   1.409       .  A
C815        C816   1.420       .  A
C815       Br824   1.933       .  S
C816       Br820   1.936       .  S
C825        C826   1.420       .  A
C825        C830   1.418       .  A
C826        C827   1.409       .  A
C826       Br838   1.934       .  S
C827        C828   1.409       .  A
C827       Br842   1.916       .  S
C828        C831   1.524       .  S
C828        C829   1.408       .  A
C829        C830   1.405       .  A
C829       Br837   1.904       .  S
C830       Br841   1.940       .  S
C831        C832   1.401       .  A
C831        C836   1.380       .  A
C832        C833   1.443       .  A
C832       Br843   1.926       .  S
C833        C834   1.414       .  A
C833       Br839   1.859       .  S
C834        C835   1.512       .  A
C835        C836   1.439       .  A
C835       Br844   1.987       .  S
C836       Br840   1.965       .  S
C845        C846   1.496       .  A
C845        C850   1.514       .  A
C846        C847   1.428       .  A
C846       Br858   1.924       .  S
C847        C848   1.379       .  A
C847       Br862   1.932       .  S
C848        C851   1.512       .  S
C848        C849   1.389       .  A
C849        C850   1.438       .  A
C849       Br857   1.957       .  S
C850       Br861   1.965       .  S
C851        C852   1.419       .  A
C851        C856   1.424       .  A
C852        C853   1.405       .  A
C852       Br863   1.930       .  S
C853        C854   1.402       .  A
C853       Br859   1.925       .  S
C854        C855   1.406       .  A
C855        C856   1.413       .  A
C855       Br864   1.932       .  S
C856       Br860   1.930       .  S
O865       Ni873   1.931       .  S
O865        C875   1.284       .  A
O866        C876   1.280       .  A
O867       Ni873   1.905       .  S
O867        C877   1.278       .  A
O868        C878   1.282       .  A
O869       Ni874   1.920       .  S
O869        C878   1.278       .  A
O870        C877   1.281       .  A
O871       Ni874   1.925       .  S
O871        C876   1.284       .  A
O872        C875   1.278       .  A
C875       C1142   1.478       .  S
C876       C1102   1.483       .  S
C877       C1082   1.479       .  S
C878       C1113   1.499       .  S
O879       C2041   1.281       .  A
O880       Ni887   1.919   1_556  S
O880       C2042   1.280       .  A
O881       C2043   1.283       .  A
O882       Ni887   1.922   1_556  S
O882       C2044   1.281       .  A
O883       Ni888   1.936   1_556  S
O883        C892   1.284       .  A
O884        C891   1.285   1_455  A
O885       Ni888   1.919   1_556  S
O885        C890   1.282       .  A
O886        C889   1.280   1_455  A
Ni887     Ni2040   2.379       .  S
Ni888     Ni2039   2.379   1_455  S
C889       O2031   1.281       .  A
C889       C1002   1.496       .  S
C890       O2032   1.280   1_455  A
C890       C1033   1.485       .  S
C891       O2033   1.283       .  A
C891       C1053   1.514       .  S
C892       O2034   1.281   1_455  A
C892       C1022   1.485       .  S
O893       Ni901   1.917       .  S
O893        C903   1.280       .  A
O894        C904   1.284       .  A
O895       Ni901   1.925       .  S
O895        C905   1.282       .  A
O896        C906   1.285       .  A
O898       Ni902   1.919       .  S
O900       Ni902   1.907       .  S
C903        C953   1.475       .  S
C904        C913   1.483       .  S
C905        C933   1.500       .  S
C906        C982   1.505       .  S
C907       C1486   2.012       .  S
C907        C912   2.049       .  S
C907       C2145   1.659       .  S
C907       C2165   1.751       .  S
C908       C2061   2.017       .  S
C908        C911   1.989       .  S
C908       C1042   1.803       .  S
C908       C1062   1.762       .  S
C909       C2060   2.017       .  S
C909        C910   1.995       .  S
C909       C1122   1.695       .  S
C909       C1133   1.724       .  S
C910       C1483   2.016   1_455  S
C910        C962   1.810       .  S
C910        C973   1.790       .  S
C911        C922   1.786       .  S
C911        C942   1.742       .  S
C912       C1073   1.801       .  S
C912       C1093   1.760       .  S
C913        C918   1.394       .  A
C914        C915   1.420       .  A
C914       Br926   1.934       .  S
C915       Br930   1.935   1_545  S
C916        C919   1.546       .  S
C916        C917   1.438       .  A
C917        C918   1.411       .  A
C917       Br925   1.913       .  S
C918       Br929   1.940       .  S
C919        C924   1.409       .  A
C920        C921   1.466       .  A
C920       Br931   1.969       .  S
C921       Br927   1.926       .  S
C922        C923   1.461       .  A
C923        C924   1.452       .  A
C923       Br932   1.930       .  S
C924       Br928   1.936       .  S
C933        C934   1.419       .  A
C934        C935   1.407       .  A
C934       Br946   1.929       .  S
C935        C936   1.406       .  A
C935       Br950   1.926       .  S
C936        C939   1.514       .  S
C937        C938   1.412       .  A
C937       Br945   1.926       .  S
C938       Br949   1.939       .  S
C939        C940   1.371       .  A
C940        C941   1.439       .  A
C940       Br951   1.963       .  S
C941        C942   1.507       .  A
C941       Br947   1.934       .  S
C943        C944   1.454       .  A
C943       Br952   1.863   1_545  S
C944       Br948   1.971       .  S
C953        C958   1.410       .  A
C954        C955   1.404       .  A
C954       Br966   1.939       .  S
C955       Br970   1.917       .  S
C956        C959   1.518       .  S
C956        C957   1.420       .  A
C957        C958   1.412       .  A
C957       Br965   1.931       .  S
C958       Br969   1.934       .  S
C959        C964   1.387       .  A
C960        C961   1.467       .  A
C960       Br971   1.992       .  S
C961       Br967   1.935       .  S
C962        C963   1.462       .  A
C963        C964   1.433       .  A
C963       Br972   1.901       .  S
C964       Br968   1.953       .  S
C973        C978   1.521       .  A
C974        C975   1.456       .  A
C974       Br986   1.908       .  S
C975       Br990   1.960       .  S
C976        C979   1.553       .  S
C976        C977   1.405       .  A
C977        C978   1.467       .  A
C977       Br985   1.966       .  S
C978       Br989   1.983       .  S
C979        C984   1.434       .  A
C980        C981   1.419       .  A
C980       Br991   1.915       .  S
C981       Br987   1.935       .  S
C982        C983   1.412       .  A
C983        C984   1.424       .  A
C983       Br992   1.934       .  S
C984       Br988   1.933       .  S
C993       C2059   1.658       .  S
C993        C994   1.499       .  A
C993       C2150   1.407       .  A
C994        C995   1.443       .  A
C994      Br1006   2.000       .  S
C995        C996   1.420       .  A
C995      Br1010   1.961       .  S
C996        C999   1.543       .  S
C996       C2149   1.436       .  A
C997       C2148   1.436       .  A
C997        C998   1.438       .  A
C997      Br1005   1.915       .  S
C998       C2145   1.407       .  A
C998      Br1009   1.872       .  S
C999       C1000   1.415   1_655  A
C999       C2156   1.434       .  A
C1000      C1001   1.403       .  A
C1000     Br1011   1.923       .  S
C1001      C1002   1.414   1_455  A
C1001     Br1007   1.931       .  S
C1002      C2155   1.415       .  A
C1003      C2154   1.415       .  A
C1003      C1004   1.415       .  A
C1003     Br1012   1.945       .  S
C1004      C2151   1.434       .  A
C1004     Br1008   1.925       .  S
C1013      C2059   1.751       .  S
C1013      C2166   1.471       .  A
C1013      C1018   1.514   1_655  A
C1014      C2165   1.471       .  A
C1014      C1015   1.442       .  A
C1014     Br1026   1.884       .  S
C1015      C2168   1.383       .  A
C1015     Br1030   1.921       .  S
C1016      C1019   1.520       .  S
C1016      C2167   1.383   1_455  A
C1016      C1017   1.376       .  A
C1017      C1018   1.441       .  A
C1017     Br1025   1.957       .  S
C1018     Br1029   1.916       .  S
C1019      C1020   1.418       .  A
C1019      C2176   1.421       .  A
C1020      C1021   1.407   1_455  A
C1020     Br1031   1.927       .  S
C1021      C1022   1.403   1_655  A
C1021     Br1027   1.918       .  S
C1022      C2175   1.406       .  A
C1023      C2174   1.406       .  A
C1023      C1024   1.413       .  A
C1023     Br1032   1.923       .  S
C1024      C2171   1.421       .  A
C1024     Br1028   1.929       .  S
C1033      C1034   1.408       .  A
C1033      C2190   1.414   1_455  A
C1034      C1035   1.409       .  A
C1034     Br1046   1.937       .  S
C1035      C1036   1.415       .  A
C1035     Br1050   1.907       .  S
C1036      C1039   1.517       .  S
C1036      C2189   1.412       .  A
C1037      C2188   1.413       .  A
C1037      C1038   1.411       .  A
C1037     Br1045   1.921       .  S
C1038      C2185   1.414       .  A
C1038     Br1049   1.933       .  S
C1039      C1040   1.382       .  A
C1039      C2196   1.406   1_455  A
C1040      C1041   1.445       .  A
C1040     Br1051   1.950       .  S
C1041      C2194   1.510       .  A
C1041     Br1047   1.966       .  S
C1042      C2193   1.510       .  A
C1042      C1043   1.497       .  A
C1043      C1044   1.461       .  A
C1043     Br1052   2.000       .  S
C1044      C2191   1.406       .  A
C1044     Br1048   1.962       .  S
C1053      C1054   1.424   1_655  A
C1053      C2210   1.419       .  A
C1054      C1055   1.423       .  A
C1054     Br1066   1.933       .  S
C1055      C1056   1.414   1_455  A
C1055     Br1070   1.920       .  S
C1056      C1059   1.537       .  S
C1056      C2209   1.412       .  A
C1057      C2208   1.412       .  A
C1057      C1058   1.412       .  A
C1057     Br1065   1.917       .  S
C1058      C2205   1.418       .  A
C1058     Br1069   1.934       .  S
C1059      C1060   1.389   1_655  A
C1059      C2216   1.385       .  A
C1060      C1061   1.450       .  A
C1060     Br1071   1.973       .  S
C1061      C2214   1.478   1_455  A
C1061     Br1067   1.857       .  S
C1062      C2213   1.478       .  A
C1062      C1063   1.513       .  A
C1063      C1064   1.465       .  A
C1063     Br1072   1.939       .  S
C1064      C2211   1.385       .  A
C1064     Br1068   1.967       .  S
C1073      C1074   1.529       .  A
C1073      C1078   1.463       .  A
C1074      C1075   1.457       .  A
C1074     Br1086   1.926       .  S
C1075      C1076   1.372       .  A
C1075     Br1090   1.992       .  S
C1076      C1079   1.518       .  S
C1076      C1077   1.401       .  A
C1077      C1078   1.460       .  A
C1077     Br1085   1.984       .  S
C1078     Br1089   1.916       .  S
C1079      C1080   1.428       .  A
C1079      C1084   1.409       .  A
C1080      C1081   1.410       .  A
C1080     Br1091   1.935       .  S
C1081      C1082   1.412       .  A
C1081     Br1087   1.940       .  S
C1082      C1083   1.409       .  A
C1083      C1084   1.401       .  A
C1083     Br1092   1.941       .  S
C1084     Br1088   1.897       .  S
C1093      C1094   1.497       .  A
C1093      C1098   1.484       .  A
C1094      C1095   1.459       .  A
C1094     Br1106   1.884       .  S
C1095      C1096   1.401       .  A
C1095     Br1110   1.978       .  S
C1096      C1099   1.531       .  S
C1096      C1097   1.383       .  A
C1097      C1098   1.441       .  A
C1097     Br1105   1.960       .  S
C1098     Br1109   1.905       .  S
C1099      C1100   1.423       .  A
C1099      C1104   1.432       .  A
C1100      C1101   1.403       .  A
C1100     Br1111   1.913       .  S
C1101      C1102   1.397       .  A
C1101     Br1107   1.932       .  S
C1102      C1103   1.409       .  A
C1103      C1104   1.420       .  A
C1103     Br1112   1.932       .  S
C1104     Br1108   1.935       .  S
C1113      C1114   1.420       .  A
C1113      C1118   1.418       .  A
C1114      C1115   1.409       .  A
C1114     Br1126   1.934       .  S
C1115      C1116   1.409       .  A
C1115     Br1130   1.917       .  S
C1116      C1119   1.524       .  S
C1116      C1117   1.408       .  A
C1117      C1118   1.405       .  A
C1117     Br1125   1.905       .  S
C1118     Br1129   1.941       .  S
C1119      C1120   1.401       .  A
C1119      C1124   1.380       .  A
C1120      C1121   1.443       .  A
C1120     Br1131   1.925       .  S
C1121      C1122   1.413       .  A
C1121     Br1127   1.859       .  S
C1122      C1123   1.512       .  A
C1123      C1124   1.439       .  A
C1123     Br1132   1.987       .  S
C1124     Br1128   1.966       .  S
C1133      C1134   1.496       .  A
C1133      C1138   1.514       .  A
C1134      C1135   1.429       .  A
C1134     Br1146   1.923       .  S
C1135      C1136   1.379       .  A
C1135     Br1150   1.933       .  S
C1136      C1139   1.512       .  S
C1136      C1137   1.389       .  A
C1137      C1138   1.438       .  A
C1137     Br1145   1.957       .  S
C1138     Br1149   1.966       .  S
C1139      C1140   1.419       .  A
C1139      C1144   1.424       .  A
C1140      C1141   1.405       .  A
C1140     Br1151   1.930       .  S
C1141      C1142   1.402       .  A
C1141     Br1147   1.926       .  S
C1142      C1143   1.406       .  A
C1143      C1144   1.413       .  A
C1143     Br1152   1.932       .  S
C1144     Br1148   1.930       .  S
O1153     Ni1161   1.937       .  S
O1153      C1163   1.285       .  A
O1154     Ni1449   1.928       .  S
O1154      C1164   1.282       .  A
O1155     Ni1161   1.910       .  S
O1155      C1165   1.279       .  A
O1156     Ni1449   1.915       .  S
O1156      C1166   1.282       .  A
O1157     Ni1162   1.917       .  S
O1157      C1166   1.278       .  A
O1158     Ni1450   1.915   1_554  S
O1158      C1165   1.282       .  A
O1159     Ni1162   1.931       .  S
O1159      C1164   1.284       .  A
O1160     Ni1450   1.923   1_554  S
O1160      C1163   1.280       .  A
Ni1161     O1442   1.928   1_554  S
Ni1161     O1444   1.912   1_554  S
Ni1161    Ni1450   2.383   1_554  S
Ni1162     O1446   1.914       .  S
Ni1162     O1448   1.924       .  S
Ni1162    Ni1449   2.383       .  S
C1163      C1430   1.487       .  S
C1164      C1390   1.492       .  S
C1165      C1370   1.487       .  S
C1166      C1401   1.493       .  S
O1167     Ni1463   1.913       .  S
O1168     Ni1175   1.921       .  S
O1169     Ni1463   1.931       .  S
O1170     Ni1175   1.923       .  S
O1171     Ni1176   1.943       .  S
O1171      C1180   1.286       .  A
O1172     Ni1464   1.943       .  S
O1172      C1179   1.286       .  A
O1173     Ni1176   1.916       .  S
O1173      C1178   1.281       .  A
O1174     Ni1464   1.923       .  S
O1174      C1177   1.281       .  A
Ni1175     O1455   1.913       .  S
Ni1175     O1457   1.929       .  S
Ni1176     O1460   1.944       .  S
Ni1176     O1462   1.924       .  S
C1177      C1290   1.491       .  S
C1178      C1321   1.484       .  S
C1179      C1341   1.518       .  S
C1180      C1310   1.491       .  S
O1181     Ni1189   1.926       .  S
O1181      C1191   1.282       .  A
O1182     Ni1477   1.940   1_554  S
O1182      C1192   1.286       .  A
O1183     Ni1189   1.922       .  S
O1183      C1193   1.281       .  A
O1184     Ni1477   1.937   1_554  S
O1184      C1194   1.285       .  A
O1185     Ni1478   1.937   1_554  S
O1185      C1770   1.285       .  A
O1186     Ni1190   1.916       .  S
O1186      C1769   1.281       .  A
O1187     Ni1478   1.914   1_554  S
O1187      C1768   1.279       .  A
O1188     Ni1190   1.908       .  S
O1188      C1767   1.280       .  A
Ni1189     O1470   1.939       .  S
Ni1189     O1472   1.936       .  S
Ni1189    Ni1766   2.383   1_545  S
Ni1190     O1473   1.937       .  S
Ni1190     O1475   1.915       .  S
Ni1190    Ni1765   2.383       .  S
C1191      O1764   1.279   1_545  A
C1191      C1241   1.481       .  S
C1192      O1763   1.278   1_545  A
C1192      C1201   1.487       .  S
C1193      O1762   1.282   1_545  A
C1193      C1221   1.501       .  S
C1194      O1761   1.285   1_545  A
C1194      C1270   1.504       .  S
C1195      C1200   2.048       .  S
C1196      C1199   1.982   1_445  S
C1196      C1330   1.794       .  S
C1196      C1350   1.758   1_455  S
C1197      C1198   1.995   1_545  S
C1197      C1410   1.685       .  S
C1197      C1421   1.728       .  S
C1198      C1250   1.817       .  S
C1198      C1261   1.786       .  S
C1199      C1776   1.984       .  S
C1199      C1210   1.792       .  S
C1199      C1230   1.748   1_565  S
C1200      C1775   1.984       .  S
C1200      C1361   1.815       .  S
C1200      C1381   1.762       .  S
C1201      C1778   1.407       .  A
C1201      C1206   1.395       .  A
C1202      C1777   1.405       .  A
C1202      C1203   1.418       .  A
C1202     Br1214   1.933       .  S
C1203      C1780   1.434       .  A
C1203     Br1218   1.935       .  S
C1204      C1207   1.550       .  S
C1204      C1779   1.435       .  A
C1204      C1205   1.438       .  A
C1205      C1206   1.412       .  A
C1205     Br1213   1.914       .  S
C1206     Br1217   1.939       .  S
C1207      C1784   1.401   1_545  A
C1207      C1212   1.409       .  A
C1208      C1783   1.400       .  A
C1208      C1209   1.464       .  A
C1208     Br1219   1.968       .  S
C1209      C1786   1.522       .  A
C1209     Br1215   1.922       .  S
C1210      C1785   1.525       .  A
C1210      C1211   1.462   1_565  A
C1211      C1212   1.454       .  A
C1211     Br1220   1.931   1_545  S
C1212     Br1216   1.939       .  S
C1221      C1222   1.421       .  A
C1221      C1802   1.421   1_545  A
C1222      C1223   1.409       .  A
C1222     Br1234   1.930       .  S
C1223      C1224   1.406       .  A
C1223     Br1238   1.926       .  S
C1224      C1227   1.515       .  S
C1224      C1801   1.414   1_545  A
C1225      C1800   1.415       .  A
C1225      C1226   1.412       .  A
C1225     Br1233   1.925       .  S
C1226      C1797   1.422       .  A
C1226     Br1237   1.939       .  S
C1227      C1228   1.372       .  A
C1227      C1808   1.388       .  A
C1228      C1229   1.442       .  A
C1228     Br1239   1.963       .  S
C1229      C1230   1.510       .  A
C1229     Br1235   1.936       .  S
C1230      C1807   1.479       .  A
C1231      C1806   1.479       .  A
C1231      C1232   1.453       .  A
C1231     Br1240   1.871       .  S
C1232      C1803   1.390       .  A
C1232     Br1236   1.966       .  S
C1241      C1818   1.406   1_545  A
C1241      C1246   1.411       .  A
C1242      C1817   1.404       .  A
C1242      C1243   1.402       .  A
C1242     Br1254   1.941       .  S
C1243      C1820   1.423       .  A
C1243     Br1258   1.921       .  S
C1244      C1247   1.522       .  S
C1244      C1819   1.420       .  A
C1244      C1245   1.418   1_565  A
C1245      C1246   1.414       .  A
C1245     Br1253   1.926       .  S
C1246     Br1257   1.933       .  S
C1247      C1824   1.384       .  A
C1247      C1252   1.389   1_565  A
C1248      C1823   1.384       .  A
C1248      C1249   1.464       .  A
C1248     Br1259   1.993       .  S
C1249      C1826   1.540       .  A
C1249     Br1255   1.932       .  S
C1250      C1825   1.545       .  A
C1250      C1251   1.466       .  A
C1251      C1252   1.438   1_565  A
C1251     Br1260   1.899       .  S
C1252     Br1256   1.957       .  S
C1261      C1838   1.499       .  A
C1261      C1266   1.523   1_565  A
C1262      C1837   1.499       .  A
C1262      C1263   1.456       .  A
C1262     Br1274   1.903       .  S
C1263      C1840   1.389       .  A
C1263     Br1278   1.971       .  S
C1264      C1267   1.557       .  S
C1264      C1839   1.389   1_545  A
C1264      C1265   1.404       .  A
C1265      C1266   1.466       .  A
C1265     Br1273   1.969       .  S
C1266     Br1277   1.984       .  S
C1267      C1844   1.429   1_545  A
C1267      C1272   1.438       .  A
C1268      C1843   1.428       .  A
C1268      C1269   1.418       .  A
C1268     Br1279   1.912       .  S
C1269      C1846   1.406       .  A
C1269     Br1275   1.934       .  S
C1270      C1845   1.404   1_545  A
C1270      C1271   1.411       .  A
C1271      C1272   1.424       .  A
C1271     Br1280   1.936       .  S
C1272     Br1276   1.937       .  S
C1281      C1282   1.495       .  A
C1282      C1283   1.436       .  A
C1282     Br1294   1.986       .  S
C1283      C1284   1.417       .  A
C1283     Br1298   1.966       .  S
C1284      C1287   1.547       .  S
C1285      C1286   1.439       .  A
C1285     Br1293   1.914       .  S
C1286     Br1297   1.878       .  S
C1287      C1288   1.419       .  A
C1288      C1289   1.406       .  A
C1288     Br1299   1.925       .  S
C1289      C1290   1.410       .  A
C1289     Br1295   1.932       .  S
C1291      C1292   1.414       .  A
C1291     Br1300   1.943       .  S
C1292     Br1296   1.931       .  S
C1301      C1306   1.509       .  A
C1302      C1303   1.444       .  A
C1302     Br1314   1.888       .  S
C1303     Br1318   1.918       .  S
C1304      C1307   1.525       .  S
C1304      C1305   1.376       .  A
C1305      C1306   1.440       .  A
C1305     Br1313   1.946       .  S
C1306     Br1317   1.912       .  S
C1307      C1308   1.415       .  A
C1308      C1309   1.408       .  A
C1308     Br1319   1.920       .  S
C1309      C1310   1.405       .  A
C1309     Br1315   1.920       .  S
C1311      C1312   1.419       .  A
C1311     Br1320   1.926       .  S
C1312     Br1316   1.929       .  S
C1321      C1322   1.409       .  A
C1322      C1323   1.409       .  A
C1322     Br1334   1.935       .  S
C1323      C1324   1.414       .  A
C1323     Br1338   1.911       .  S
C1324      C1327   1.513       .  S
C1325      C1326   1.410   1_455  A
C1325     Br1333   1.921   1_455  S
C1326     Br1337   1.933       .  S
C1327      C1328   1.380       .  A
C1328      C1329   1.443       .  A
C1328     Br1339   1.946       .  S
C1329     Br1335   1.969       .  S
C1330      C1331   1.489   1_455  A
C1331      C1332   1.460       .  A
C1331     Br1340   1.988   1_655  S
C1332     Br1336   1.959       .  S
C1341      C1342   1.426       .  A
C1342      C1343   1.421       .  A
C1342     Br1354   1.931       .  S
C1343      C1344   1.411       .  A
C1343     Br1358   1.921       .  S
C1344      C1347   1.532       .  S
C1345      C1346   1.412       .  A
C1345     Br1353   1.917       .  S
C1346     Br1357   1.933       .  S
C1347      C1348   1.387       .  A
C1348      C1349   1.447       .  A
C1348     Br1359   1.972       .  S
C1349     Br1355   1.852       .  S
C1350      C1351   1.514       .  A
C1351      C1352   1.464       .  A
C1351     Br1360   1.939       .  S
C1352     Br1356   1.969       .  S
C1361      C1362   1.535       .  A
C1361      C1366   1.466       .  A
C1362      C1363   1.463       .  A
C1362     Br1374   1.929       .  S
C1363      C1364   1.375       .  A
C1363     Br1378   1.989       .  S
C1364      C1367   1.527       .  S
C1364      C1365   1.399       .  A
C1365      C1366   1.463       .  A
C1365     Br1373   1.979       .  S
C1366     Br1377   1.915       .  S
C1367      C1368   1.427       .  A
C1367      C1372   1.413       .  A
C1368      C1369   1.411       .  A
C1368     Br1379   1.933       .  S
C1369      C1370   1.412       .  A
C1369     Br1375   1.938       .  S
C1370      C1371   1.409       .  A
C1371      C1372   1.406       .  A
C1371     Br1380   1.942       .  S
C1372     Br1376   1.896       .  S
C1381      C1382   1.497       .  A
C1381      C1386   1.478       .  A
C1382      C1383   1.463       .  A
C1382     Br1394   1.880       .  S
C1383      C1384   1.397       .  A
C1383     Br1398   1.970       .  S
C1384      C1387   1.530       .  S
C1384      C1385   1.379       .  A
C1385      C1386   1.442       .  A
C1385     Br1393   1.951       .  S
C1386     Br1397   1.897       .  S
C1387      C1388   1.417       .  A
C1387      C1392   1.426       .  A
C1388      C1389   1.404       .  A
C1388     Br1399   1.913       .  S
C1389      C1390   1.401       .  A
C1389     Br1395   1.922       .  S
C1390      C1391   1.411       .  A
C1391      C1392   1.421       .  A
C1391     Br1400   1.933       .  S
C1392     Br1396   1.924       .  S
C1401      C1402   1.418       .  A
C1401      C1406   1.413       .  A
C1402      C1403   1.409       .  A
C1402     Br1414   1.933       .  S
C1403      C1404   1.411       .  A
C1403     Br1418   1.922       .  S
C1404      C1407   1.518       .  S
C1404      C1405   1.405       .  A
C1405      C1406   1.400       .  A
C1405     Br1413   1.911       .  S
C1406     Br1417   1.932       .  S
C1407      C1408   1.403       .  A
C1407      C1412   1.378       .  A
C1408      C1409   1.443       .  A
C1408     Br1419   1.929       .  S
C1409      C1410   1.415       .  A
C1409     Br1415   1.875       .  S
C1410      C1411   1.508       .  A
C1411      C1412   1.435       .  A
C1411     Br1420   1.984       .  S
C1412     Br1416   1.969       .  S
C1421      C1422   1.497       .  A
C1421      C1426   1.515       .  A
C1422      C1423   1.429       .  A
C1422     Br1434   1.929       .  S
C1423      C1424   1.380       .  A
C1423     Br1438   1.928       .  S
C1424      C1427   1.514       .  S
C1424      C1425   1.387       .  A
C1425      C1426   1.439       .  A
C1425     Br1433   1.956       .  S
C1426     Br1437   1.966       .  S
C1427      C1428   1.420       .  A
C1427      C1432   1.420       .  A
C1428      C1429   1.412       .  A
C1428     Br1439   1.929       .  S
C1429      C1430   1.407       .  A
C1429     Br1435   1.924       .  S
C1430      C1431   1.408       .  A
C1431      C1432   1.413       .  A
C1431     Br1440   1.930       .  S
C1432     Br1436   1.930       .  S
O1441     Ni1449   1.937       .  S
O1441      C1451   1.285       .  A
O1442      C1452   1.282       .  A
O1443     Ni1449   1.911       .  S
O1443      C1453   1.279       .  A
O1444      C1454   1.282       .  A
O1445     Ni1450   1.917       .  S
O1445      C1454   1.278       .  A
O1446      C1453   1.281       .  A
O1447     Ni1450   1.931       .  S
O1447      C1452   1.284       .  A
O1448      C1451   1.280       .  A
C1451      C1718   1.489       .  S
C1452      C1678   1.492       .  S
C1453      C1658   1.487       .  S
C1454      C1689   1.492       .  S
O1456     Ni1463   1.921   1_556  S
O1458     Ni1463   1.924   1_556  S
O1459     Ni1464   1.943   1_556  S
O1459      C1468   1.286       .  A
O1460      C1467   1.286       .  A
O1461     Ni1464   1.916   1_556  S
O1461      C1466   1.281       .  A
O1462      C1465   1.281       .  A
C1465      C1578   1.490       .  S
C1466      C1609   1.484       .  S
C1467      C1629   1.518       .  S
C1468      C1598   1.491       .  S
O1469     Ni1477   1.925       .  S
O1469      C1479   1.282       .  A
O1470      C1480   1.286       .  A
O1471     Ni1477   1.922       .  S
O1471      C1481   1.281       .  A
O1472      C1482   1.284       .  A
O1473      C2058   1.285       .  A
O1474     Ni1478   1.918       .  S
O1474      C2057   1.281       .  A
O1475      C2056   1.279       .  A
O1476     Ni1478   1.908       .  S
O1476      C2055   1.280       .  A
Ni1477    Ni2054   2.383   1_545  S
Ni1478    Ni2053   2.384       .  S
C1479      O2052   1.279   1_545  A
C1479      C1529   1.481       .  S
C1480      O2051   1.278   1_545  A
C1480      C1489   1.487       .  S
C1481      O2050   1.282   1_545  A
C1481      C1509   1.500       .  S
C1482      O2049   1.285   1_545  A
C1482      C1558   1.504       .  S
C1483      C1488   2.047       .  S
C1484      C1487   1.982   1_445  S
C1484      C1618   1.792       .  S
C1484      C1638   1.758   1_455  S
C1485      C1486   1.995   1_545  S
C1485      C1698   1.685       .  S
C1485      C1709   1.729       .  S
C1486      C1538   1.816       .  S
C1486      C1549   1.785       .  S
C1487      C2064   1.984       .  S
C1487      C1498   1.792       .  S
C1487      C1518   1.748   1_565  S
C1488      C2063   1.984       .  S
C1488      C1649   1.814       .  S
C1488      C1669   1.764       .  S
C1489      C2066   1.406       .  A
C1489      C1494   1.395       .  A
C1490      C2065   1.406       .  A
C1490      C1491   1.418       .  A
C1490     Br1502   1.933       .  S
C1491      C2068   1.434       .  A
C1491     Br1506   1.935       .  S
C1492      C1495   1.550       .  S
C1492      C2067   1.435       .  A
C1492      C1493   1.438       .  A
C1493      C1494   1.412       .  A
C1493     Br1501   1.914       .  S
C1494     Br1505   1.940       .  S
C1495      C2072   1.401   1_545  A
C1495      C1500   1.409       .  A
C1496      C2071   1.400       .  A
C1496      C1497   1.464       .  A
C1496     Br1507   1.968       .  S
C1497      C2074   1.522       .  A
C1497     Br1503   1.921       .  S
C1498      C2073   1.525       .  A
C1498      C1499   1.462   1_565  A
C1499      C1500   1.454       .  A
C1499     Br1508   1.930   1_545  S
C1500     Br1504   1.939       .  S
C1509      C1510   1.421       .  A
C1509      C2090   1.421   1_545  A
C1510      C1511   1.408       .  A
C1510     Br1522   1.930       .  S
C1511      C1512   1.406       .  A
C1511     Br1526   1.927       .  S
C1512      C1515   1.514       .  S
C1512      C2089   1.414   1_545  A
C1513      C2088   1.415       .  A
C1513      C1514   1.413       .  A
C1513     Br1521   1.925       .  S
C1514      C2085   1.421       .  A
C1514     Br1525   1.939       .  S
C1515      C1516   1.371       .  A
C1515      C2096   1.388       .  A
C1516      C1517   1.442       .  A
C1516     Br1527   1.964       .  S
C1517      C1518   1.510       .  A
C1517     Br1523   1.936       .  S
C1518      C2095   1.480       .  A
C1519      C2094   1.479       .  A
C1519      C1520   1.454       .  A
C1519     Br1528   1.872       .  S
C1520      C2091   1.391       .  A
C1520     Br1524   1.966       .  S
C1529      C2106   1.406   1_545  A
C1529      C1534   1.411       .  A
C1530      C2105   1.404       .  A
C1530      C1531   1.403       .  A
C1530     Br1542   1.941       .  S
C1531      C2108   1.423       .  A
C1531     Br1546   1.921       .  S
C1532      C1535   1.522       .  S
C1532      C2107   1.420       .  A
C1532      C1533   1.418   1_565  A
C1533      C1534   1.414       .  A
C1533     Br1541   1.926       .  S
C1534     Br1545   1.933       .  S
C1535      C2112   1.384       .  A
C1535      C1540   1.389   1_565  A
C1536      C2111   1.384       .  A
C1536      C1537   1.464       .  A
C1536     Br1547   1.994       .  S
C1537      C2114   1.540       .  A
C1537     Br1543   1.933       .  S
C1538      C2113   1.544       .  A
C1538      C1539   1.465       .  A
C1539      C1540   1.438   1_565  A
C1539     Br1548   1.899       .  S
C1540     Br1544   1.957       .  S
C1549      C2126   1.499       .  A
C1549      C1554   1.523   1_565  A
C1550      C2125   1.499       .  A
C1550      C1551   1.457       .  A
C1550     Br1562   1.903       .  S
C1551      C2128   1.389       .  A
C1551     Br1566   1.972       .  S
C1552      C1555   1.556       .  S
C1552      C2127   1.389   1_545  A
C1552      C1553   1.404       .  A
C1553      C1554   1.466       .  A
C1553     Br1561   1.970       .  S
C1554     Br1565   1.984       .  S
C1555      C2132   1.429   1_545  A
C1555      C1560   1.438       .  A
C1556      C2131   1.427       .  A
C1556      C1557   1.418       .  A
C1556     Br1567   1.912       .  S
C1557      C2134   1.406       .  A
C1557     Br1563   1.934       .  S
C1558      C2133   1.405   1_545  A
C1558      C1559   1.411       .  A
C1559      C1560   1.423       .  A
C1559     Br1568   1.936       .  S
C1560     Br1564   1.936       .  S
C1569      C1570   1.494       .  A
C1570      C1571   1.436       .  A
C1570     Br1582   1.986       .  S
C1571      C1572   1.417       .  A
C1571     Br1586   1.966       .  S
C1572      C1575   1.547       .  S
C1573      C1574   1.439       .  A
C1573     Br1581   1.915       .  S
C1574     Br1585   1.879   1_655  S
C1575      C1576   1.418       .  A
C1576      C1577   1.406       .  A
C1576     Br1587   1.924       .  S
C1577      C1578   1.411       .  A
C1577     Br1583   1.931       .  S
C1579      C1580   1.414       .  A
C1579     Br1588   1.943       .  S
C1580     Br1584   1.932       .  S
C1589      C1594   1.508       .  A
C1590      C1591   1.443       .  A
C1590     Br1602   1.888       .  S
C1591     Br1606   1.917       .  S
C1592      C1595   1.524       .  S
C1592      C1593   1.376       .  A
C1593      C1594   1.440       .  A
C1593     Br1601   1.946       .  S
C1594     Br1605   1.912       .  S
C1595      C1596   1.415       .  A
C1596      C1597   1.408       .  A
C1596     Br1607   1.921       .  S
C1597      C1598   1.405       .  A
C1597     Br1603   1.920       .  S
C1599      C1600   1.419       .  A
C1599     Br1608   1.926       .  S
C1600     Br1604   1.929       .  S
C1609      C1610   1.409       .  A
C1610      C1611   1.409       .  A
C1610     Br1622   1.935       .  S
C1611      C1612   1.413       .  A
C1611     Br1626   1.911       .  S
C1612      C1615   1.513       .  S
C1613      C1614   1.409   1_455  A
C1613     Br1621   1.921   1_455  S
C1614     Br1625   1.933       .  S
C1615      C1616   1.380       .  A
C1616      C1617   1.443       .  A
C1616     Br1627   1.947       .  S
C1617     Br1623   1.969       .  S
C1618      C1619   1.489   1_455  A
C1619      C1620   1.460       .  A
C1619     Br1628   1.988   1_655  S
C1620     Br1624   1.961       .  S
C1629      C1630   1.426       .  A
C1630      C1631   1.421       .  A
C1630     Br1642   1.931       .  S
C1631      C1632   1.411       .  A
C1631     Br1646   1.921       .  S
C1632      C1635   1.532       .  S
C1633      C1634   1.412       .  A
C1633     Br1641   1.917       .  S
C1634     Br1645   1.934       .  S
C1635      C1636   1.387       .  A
C1636      C1637   1.447       .  A
C1636     Br1647   1.972       .  S
C1637     Br1643   1.852       .  S
C1638      C1639   1.514       .  A
C1639      C1640   1.464       .  A
C1639     Br1648   1.940       .  S
C1640     Br1644   1.969       .  S
C1649      C1650   1.534       .  A
C1649      C1654   1.466       .  A
C1650      C1651   1.462       .  A
C1650     Br1662   1.930       .  S
C1651      C1652   1.374       .  A
C1651     Br1666   1.989       .  S
C1652      C1655   1.526       .  S
C1652      C1653   1.399       .  A
C1653      C1654   1.461       .  A
C1653     Br1661   1.978       .  S
C1654     Br1665   1.918       .  S
C1655      C1656   1.426       .  A
C1655      C1660   1.412       .  A
C1656      C1657   1.411       .  A
C1656     Br1667   1.933       .  S
C1657      C1658   1.412       .  A
C1657     Br1663   1.938       .  S
C1658      C1659   1.410       .  A
C1659      C1660   1.406       .  A
C1659     Br1668   1.942       .  S
C1660     Br1664   1.896       .  S
C1669      C1670   1.499       .  A
C1669      C1674   1.478       .  A
C1670      C1671   1.464       .  A
C1670     Br1682   1.878       .  S
C1671      C1672   1.396       .  A
C1671     Br1686   1.971       .  S
C1672      C1675   1.530       .  S
C1672      C1673   1.379       .  A
C1673      C1674   1.443       .  A
C1673     Br1681   1.950       .  S
C1674     Br1685   1.898       .  S
C1675      C1676   1.418       .  A
C1675      C1680   1.425       .  A
C1676      C1677   1.405       .  A
C1676     Br1687   1.914       .  S
C1677      C1678   1.402       .  A
C1677     Br1683   1.923       .  S
C1678      C1679   1.411       .  A
C1679      C1680   1.420       .  A
C1679     Br1688   1.933       .  S
C1680     Br1684   1.923       .  S
C1689      C1690   1.418       .  A
C1689      C1694   1.414       .  A
C1690      C1691   1.408       .  A
C1690     Br1702   1.933       .  S
C1691      C1692   1.411       .  A
C1691     Br1706   1.921       .  S
C1692      C1695   1.517       .  S
C1692      C1693   1.405       .  A
C1693      C1694   1.400       .  A
C1693     Br1701   1.910       .  S
C1694     Br1705   1.933       .  S
C1695      C1696   1.403       .  A
C1695      C1700   1.377       .  A
C1696      C1697   1.443       .  A
C1696     Br1707   1.930       .  S
C1697      C1698   1.415       .  A
C1697     Br1703   1.875       .  S
C1698      C1699   1.508       .  A
C1699      C1700   1.434       .  A
C1699     Br1708   1.984       .  S
C1700     Br1704   1.969       .  S
C1709      C1710   1.497       .  A
C1709      C1714   1.516       .  A
C1710      C1711   1.429       .  A
C1710     Br1722   1.929       .  S
C1711      C1712   1.380       .  A
C1711     Br1726   1.927       .  S
C1712      C1715   1.516       .  S
C1712      C1713   1.388       .  A
C1713      C1714   1.440       .  A
C1713     Br1721   1.955       .  S
C1714     Br1725   1.967       .  S
C1715      C1716   1.421       .  A
C1715      C1720   1.420       .  A
C1716      C1717   1.412       .  A
C1716     Br1727   1.930       .  S
C1717      C1718   1.407       .  A
C1717     Br1723   1.925       .  S
C1718      C1719   1.408       .  A
C1719      C1720   1.413       .  A
C1719     Br1728   1.930       .  S
C1720     Br1724   1.929       .  S
O1729     Ni1737   1.931       .  S
O1729      C1739   1.284       .  A
O1730     Ni2025   1.924       .  S
O1730      C1740   1.280       .  A
O1731     Ni1737   1.906       .  S
O1731      C1741   1.278       .  A
O1732     Ni2025   1.910       .  S
O1732      C1742   1.282       .  A
O1733     Ni1738   1.920       .  S
O1733      C1742   1.278       .  A
O1734     Ni2026   1.910   1_554  S
O1734      C1741   1.281       .  A
O1735     Ni1738   1.925       .  S
O1735      C1740   1.283       .  A
O1736     Ni2026   1.915   1_554  S
O1736      C1739   1.278       .  A
Ni1737     O2018   1.924   1_554  S
Ni1737     O2020   1.910   1_554  S
Ni1737    Ni2026   2.384   1_554  S
Ni1738     O2022   1.910       .  S
Ni1738     O2024   1.915       .  S
Ni1738    Ni2025   2.384       .  S
C1739      C2006   1.479       .  S
C1740      C1966   1.483       .  S
C1741      C1946   1.479       .  S
C1742      C1977   1.499       .  S
O1743     Ni2039   1.909       .  S
O1744     Ni1751   1.919       .  S
O1745     Ni2039   1.930       .  S
O1746     Ni1751   1.921       .  S
O1747     Ni1752   1.935       .  S
O1747      C1756   1.284       .  A
O1748     Ni2040   1.938       .  S
O1748      C1755   1.285       .  A
O1749     Ni1752   1.920       .  S
O1749      C1754   1.282       .  A
O1750     Ni2040   1.924       .  S
O1750      C1753   1.280       .  A
Ni1751     O2031   1.909       .  S
Ni1751     O2033   1.930       .  S
Ni1752     O2036   1.939       .  S
Ni1752     O2038   1.925       .  S
C1753      C1866   1.496       .  S
C1754      C1897   1.486       .  S
C1755      C1917   1.514       .  S
C1756      C1886   1.484       .  S
O1757     Ni1765   1.918       .  S
O1757      C1767   1.280       .  A
O1758     Ni2053   1.932   1_554  S
O1758      C1768   1.284       .  A
O1759     Ni1765   1.925       .  S
O1759      C1769   1.282       .  A
O1760     Ni2053   1.938   1_554  S
O1760      C1770   1.285       .  A
O1761     Ni2054   1.938   1_554  S
O1762     Ni1766   1.921       .  S
O1763     Ni2054   1.912   1_554  S
O1764     Ni1766   1.908       .  S
Ni1765     O2046   1.933       .  S
Ni1765     O2048   1.939       .  S
Ni1766     O2049   1.938       .  S
Ni1766     O2051   1.912       .  S
C1767      C1817   1.476       .  S
C1768      C1777   1.482       .  S
C1769      C1797   1.500       .  S
C1770      C1846   1.505       .  S
C1771      C1776   2.050       .  S
C1772      C1775   1.988   1_455  S
C1772      C1906   1.802       .  S
C1772      C1926   1.762   1_455  S
C1773      C1774   1.996       .  S
C1773      C1986   1.696       .  S
C1773      C1997   1.725       .  S
C1774      C1826   1.809       .  S
C1774      C1837   1.789       .  S
C1775      C1786   1.786       .  S
C1775      C1806   1.742       .  S
C1776      C1937   1.801       .  S
C1776      C1957   1.760       .  S
C1777      C1782   1.394       .  A
C1778      C1779   1.420       .  A
C1778     Br1790   1.935   1_545  S
C1779     Br1794   1.935   1_545  S
C1780      C1783   1.546       .  S
C1780      C1781   1.438       .  A
C1781      C1782   1.410       .  A
C1781     Br1789   1.913       .  S
C1782     Br1793   1.940       .  S
C1783      C1788   1.409       .  A
C1784      C1785   1.466       .  A
C1784     Br1795   1.969       .  S
C1785     Br1791   1.926       .  S
C1786      C1787   1.461       .  A
C1787      C1788   1.452       .  A
C1787     Br1796   1.930       .  S
C1788     Br1792   1.937       .  S
C1797      C1798   1.419       .  A
C1798      C1799   1.407       .  A
C1798     Br1810   1.929       .  S
C1799      C1800   1.405       .  A
C1799     Br1814   1.927       .  S
C1800      C1803   1.513       .  S
C1801      C1802   1.413       .  A
C1801     Br1809   1.926       .  S
C1802     Br1813   1.938       .  S
C1803      C1804   1.370       .  A
C1804      C1805   1.438       .  A
C1804     Br1815   1.964       .  S
C1805      C1806   1.507       .  A
C1805     Br1811   1.934       .  S
C1807      C1808   1.454       .  A
C1807     Br1816   1.862   1_545  S
C1808     Br1812   1.971       .  S
C1817      C1822   1.411       .  A
C1818      C1819   1.405       .  A
C1818     Br1830   1.939       .  S
C1819     Br1834   1.917       .  S
C1820      C1823   1.518       .  S
C1820      C1821   1.421       .  A
C1821      C1822   1.413       .  A
C1821     Br1829   1.930       .  S
C1822     Br1833   1.934       .  S
C1823      C1828   1.388       .  A
C1824      C1825   1.467       .  A
C1824     Br1835   1.992       .  S
C1825     Br1831   1.935       .  S
C1826      C1827   1.460       .  A
C1827      C1828   1.433       .  A
C1827     Br1836   1.900       .  S
C1828     Br1832   1.952       .  S
C1837      C1842   1.521       .  A
C1838      C1839   1.456       .  A
C1838     Br1850   1.908       .  S
C1839     Br1854   1.961       .  S
C1840      C1843   1.553       .  S
C1840      C1841   1.404       .  A
C1841      C1842   1.466       .  A
C1841     Br1849   1.967       .  S
C1842     Br1853   1.981       .  S
C1843      C1848   1.434       .  A
C1844      C1845   1.419       .  A
C1844     Br1855   1.915       .  S
C1845     Br1851   1.934       .  S
C1846      C1847   1.412       .  A
C1847      C1848   1.423       .  A
C1847     Br1856   1.934       .  S
C1848     Br1852   1.933       .  S
C1857      C1858   1.498       .  A
C1858      C1859   1.442       .  A
C1858     Br1870   1.999       .  S
C1859      C1860   1.420       .  A
C1859     Br1874   1.961       .  S
C1860      C1863   1.544       .  S
C1861      C1862   1.438       .  A
C1861     Br1869   1.914       .  S
C1862     Br1873   1.872       .  S
C1863      C1864   1.415       .  A
C1864      C1865   1.404       .  A
C1864     Br1875   1.922       .  S
C1865      C1866   1.414       .  A
C1865     Br1871   1.932       .  S
C1867      C1868   1.415       .  A
C1867     Br1876   1.945       .  S
C1868     Br1872   1.925       .  S
C1877      C1882   1.513       .  A
C1878      C1879   1.442       .  A
C1878     Br1890   1.884       .  S
C1879     Br1894   1.921       .  S
C1880      C1883   1.520       .  S
C1880      C1881   1.375       .  A
C1881      C1882   1.441       .  A
C1881     Br1889   1.957       .  S
C1882     Br1893   1.915       .  S
C1883      C1884   1.418       .  A
C1884      C1885   1.406       .  A
C1884     Br1895   1.927       .  S
C1885      C1886   1.403       .  A
C1885     Br1891   1.918       .  S
C1887      C1888   1.413       .  A
C1887     Br1896   1.922       .  S
C1888     Br1892   1.929       .  S
C1897      C1898   1.408       .  A
C1898      C1899   1.410       .  A
C1898     Br1910   1.937       .  S
C1899      C1900   1.416       .  A
C1899     Br1914   1.907       .  S
C1900      C1903   1.518       .  S
C1901      C1902   1.411   1_455  A
C1901     Br1909   1.921   1_455  S
C1902     Br1913   1.933       .  S
C1903      C1904   1.382       .  A
C1904      C1905   1.446       .  A
C1904     Br1915   1.951       .  S
C1905     Br1911   1.967       .  S
C1906      C1907   1.496   1_455  A
C1907      C1908   1.462       .  A
C1907     Br1916   1.998   1_655  S
C1908     Br1912   1.962       .  S
C1917      C1918   1.423       .  A
C1918      C1919   1.422       .  A
C1918     Br1930   1.932       .  S
C1919      C1920   1.414       .  A
C1919     Br1934   1.920       .  S
C1920      C1923   1.537       .  S
C1921      C1922   1.412       .  A
C1921     Br1929   1.917       .  S
C1922     Br1933   1.934       .  S
C1923      C1924   1.389       .  A
C1924      C1925   1.450       .  A
C1924     Br1935   1.973       .  S
C1925     Br1931   1.857       .  S
C1926      C1927   1.513       .  A
C1927      C1928   1.466       .  A
C1927     Br1936   1.940       .  S
C1928     Br1932   1.967       .  S
C1937      C1938   1.529       .  A
C1937      C1942   1.463       .  A
C1938      C1939   1.457       .  A
C1938     Br1950   1.925       .  S
C1939      C1940   1.372       .  A
C1939     Br1954   1.993       .  S
C1940      C1943   1.518       .  S
C1940      C1941   1.400       .  A
C1941      C1942   1.460       .  A
C1941     Br1949   1.984       .  S
C1942     Br1953   1.917       .  S
C1943      C1944   1.428       .  A
C1943      C1948   1.409       .  A
C1944      C1945   1.410       .  A
C1944     Br1955   1.935       .  S
C1945      C1946   1.412       .  A
C1945     Br1951   1.940       .  S
C1946      C1947   1.409       .  A
C1947      C1948   1.401       .  A
C1947     Br1956   1.941       .  S
C1948     Br1952   1.897       .  S
C1957      C1958   1.497       .  A
C1957      C1962   1.484       .  A
C1958      C1959   1.459       .  A
C1958     Br1970   1.884       .  S
C1959      C1960   1.401       .  A
C1959     Br1974   1.977       .  S
C1960      C1963   1.531       .  S
C1960      C1961   1.382       .  A
C1961      C1962   1.441       .  A
C1961     Br1969   1.959       .  S
C1962     Br1973   1.906       .  S
C1963      C1964   1.423       .  A
C1963      C1968   1.433       .  A
C1964      C1965   1.402       .  A
C1964     Br1975   1.912       .  S
C1965      C1966   1.397       .  A
C1965     Br1971   1.932       .  S
C1966      C1967   1.409       .  A
C1967      C1968   1.420       .  A
C1967     Br1976   1.933       .  S
C1968     Br1972   1.936       .  S
C1977      C1978   1.420       .  A
C1977      C1982   1.418       .  A
C1978      C1979   1.409       .  A
C1978     Br1990   1.934       .  S
C1979      C1980   1.409       .  A
C1979     Br1994   1.916       .  S
C1980      C1983   1.524       .  S
C1980      C1981   1.408       .  A
C1981      C1982   1.405       .  A
C1981     Br1989   1.904       .  S
C1982     Br1993   1.941       .  S
C1983      C1984   1.401       .  A
C1983      C1988   1.380       .  A
C1984      C1985   1.443       .  A
C1984     Br1995   1.926       .  S
C1985      C1986   1.414       .  A
C1985     Br1991   1.858       .  S
C1986      C1987   1.512       .  A
C1987      C1988   1.439       .  A
C1987     Br1996   1.987       .  S
C1988     Br1992   1.965       .  S
C1997      C1998   1.496       .  A
C1997      C2002   1.514       .  A
C1998      C1999   1.429       .  A
C1998     Br2010   1.923       .  S
C1999      C2000   1.379       .  A
C1999     Br2014   1.932       .  S
C2000      C2003   1.513       .  S
C2000      C2001   1.389       .  A
C2001      C2002   1.439       .  A
C2001     Br2009   1.958       .  S
C2002     Br2013   1.965       .  S
C2003      C2004   1.419       .  A
C2003      C2008   1.424       .  A
C2004      C2005   1.406       .  A
C2004     Br2015   1.930       .  S
C2005      C2006   1.402       .  A
C2005     Br2011   1.925       .  S
C2006      C2007   1.406       .  A
C2007      C2008   1.414       .  A
C2007     Br2016   1.932       .  S
C2008     Br2012   1.930       .  S
O2017     Ni2025   1.931       .  S
O2017      C2027   1.284       .  A
O2018      C2028   1.280       .  A
O2019     Ni2025   1.905       .  S
O2019      C2029   1.277       .  A
O2020      C2030   1.282       .  A
O2021     Ni2026   1.920       .  S
O2021      C2030   1.278       .  A
O2022      C2029   1.281       .  A
O2023     Ni2026   1.925       .  S
O2023      C2028   1.284       .  A
O2024      C2027   1.278       .  A
C2027      C2294   1.478       .  S
C2028      C2254   1.483       .  S
C2029      C2234   1.479       .  S
C2030      C2265   1.499       .  S
O2032     Ni2039   1.918   1_556  S
O2034     Ni2039   1.921   1_556  S
O2035     Ni2040   1.936   1_556  S
O2035      C2044   1.284       .  A
O2036      C2043   1.285       .  A
O2037     Ni2040   1.919   1_556  S
O2037      C2042   1.282       .  A
O2038      C2041   1.280       .  A
C2041      C2154   1.496       .  S
C2042      C2185   1.486       .  S
C2043      C2205   1.514       .  S
C2044      C2174   1.485       .  S
O2045     Ni2053   1.918       .  S
O2045      C2055   1.280       .  A
O2046      C2056   1.284       .  A
O2047     Ni2053   1.925       .  S
O2047      C2057   1.282       .  A
O2048      C2058   1.285       .  A
O2050     Ni2054   1.920       .  S
O2052     Ni2054   1.907       .  S
C2055      C2105   1.476       .  S
C2056      C2065   1.483       .  S
C2057      C2085   1.500       .  S
C2058      C2134   1.505       .  S
C2059      C2064   2.049       .  S
C2060      C2063   1.989   1_455  S
C2060      C2194   1.801       .  S
C2060      C2214   1.762   1_455  S
C2061      C2062   1.995       .  S
C2061      C2274   1.696       .  S
C2061      C2285   1.724       .  S
C2062      C2114   1.809       .  S
C2062      C2125   1.790       .  S
C2063      C2074   1.786       .  S
C2063      C2094   1.743       .  S
C2064      C2225   1.801       .  S
C2064      C2245   1.760       .  S
C2065      C2070   1.394       .  A
C2066      C2067   1.420       .  A
C2066     Br2078   1.935       .  S
C2067     Br2082   1.935   1_545  S
C2068      C2071   1.547       .  S
C2068      C2069   1.438       .  A
C2069      C2070   1.411       .  A
C2069     Br2077   1.913       .  S
C2070     Br2081   1.941       .  S
C2071      C2076   1.409       .  A
C2072      C2073   1.467       .  A
C2072     Br2083   1.970       .  S
C2073     Br2079   1.926       .  S
C2074      C2075   1.461       .  A
C2075      C2076   1.452       .  A
C2075     Br2084   1.930       .  S
C2076     Br2080   1.936       .  S
C2085      C2086   1.419       .  A
C2086      C2087   1.407       .  A
C2086     Br2098   1.928       .  S
C2087      C2088   1.406       .  A
C2087     Br2102   1.926       .  S
C2088      C2091   1.515       .  S
C2089      C2090   1.412       .  A
C2089     Br2097   1.926       .  S
C2090     Br2101   1.939       .  S
C2091      C2092   1.371       .  A
C2092      C2093   1.439       .  A
C2092     Br2103   1.963       .  S
C2093      C2094   1.507       .  A
C2093     Br2099   1.934       .  S
C2095      C2096   1.454       .  A
C2095     Br2104   1.863   1_545  S
C2096     Br2100   1.971       .  S
C2105      C2110   1.410       .  A
C2106      C2107   1.404       .  A
C2106     Br2118   1.939       .  S
C2107     Br2122   1.917       .  S
C2108      C2111   1.518       .  S
C2108      C2109   1.420       .  A
C2109      C2110   1.413       .  A
C2109     Br2117   1.931       .  S
C2110     Br2121   1.934       .  S
C2111      C2116   1.387       .  A
C2112      C2113   1.467       .  A
C2112     Br2123   1.991       .  S
C2113     Br2119   1.936       .  S
C2114      C2115   1.461       .  A
C2115      C2116   1.432       .  A
C2115     Br2124   1.901       .  S
C2116     Br2120   1.952       .  S
C2125      C2130   1.521       .  A
C2126      C2127   1.456       .  A
C2126     Br2138   1.908       .  S
C2127     Br2142   1.960       .  S
C2128      C2131   1.552       .  S
C2128      C2129   1.404       .  A
C2129      C2130   1.466       .  A
C2129     Br2137   1.966       .  S
C2130     Br2141   1.982       .  S
C2131      C2136   1.433       .  A
C2132      C2133   1.419       .  A
C2132     Br2143   1.915       .  S
C2133     Br2139   1.935       .  S
C2134      C2135   1.412       .  A
C2135      C2136   1.424       .  A
C2135     Br2144   1.934       .  S
C2136     Br2140   1.933       .  S
C2145      C2146   1.499       .  A
C2146      C2147   1.443       .  A
C2146     Br2158   2.000       .  S
C2147      C2148   1.420       .  A
C2147     Br2162   1.961       .  S
C2148      C2151   1.543       .  S
C2149      C2150   1.438       .  A
C2149     Br2157   1.914       .  S
C2150     Br2161   1.872       .  S
C2151      C2152   1.415       .  A
C2152      C2153   1.404       .  A
C2152     Br2163   1.923       .  S
C2153      C2154   1.414       .  A
C2153     Br2159   1.931       .  S
C2155      C2156   1.415       .  A
C2155     Br2164   1.945       .  S
C2156     Br2160   1.925       .  S
C2165      C2170   1.514       .  A
C2166      C2167   1.442       .  A
C2166     Br2178   1.884       .  S
C2167     Br2182   1.921       .  S
C2168      C2171   1.520       .  S
C2168      C2169   1.376       .  A
C2169      C2170   1.441       .  A
C2169     Br2177   1.957       .  S
C2170     Br2181   1.916       .  S
C2171      C2172   1.418       .  A
C2172      C2173   1.407       .  A
C2172     Br2183   1.927       .  S
C2173      C2174   1.403       .  A
C2173     Br2179   1.917       .  S
C2175      C2176   1.413       .  A
C2175     Br2184   1.923       .  S
C2176     Br2180   1.929       .  S
C2185      C2186   1.408       .  A
C2186      C2187   1.409       .  A
C2186     Br2198   1.937       .  S
C2187      C2188   1.416       .  A
C2187     Br2202   1.906       .  S
C2188      C2191   1.519       .  S
C2189      C2190   1.410   1_455  A
C2189     Br2197   1.921   1_455  S
C2190     Br2201   1.933       .  S
C2191      C2192   1.382       .  A
C2192      C2193   1.445       .  A
C2192     Br2203   1.949       .  S
C2193     Br2199   1.967       .  S
C2194      C2195   1.496   1_455  A
C2195      C2196   1.461       .  A
C2195     Br2204   1.999   1_655  S
C2196     Br2200   1.962       .  S
C2205      C2206   1.423       .  A
C2206      C2207   1.423       .  A
C2206     Br2218   1.932       .  S
C2207      C2208   1.414       .  A
C2207     Br2222   1.920       .  S
C2208      C2211   1.537       .  S
C2209      C2210   1.412       .  A
C2209     Br2217   1.917       .  S
C2210     Br2221   1.934       .  S
C2211      C2212   1.389       .  A
C2212      C2213   1.450       .  A
C2212     Br2223   1.974       .  S
C2213     Br2219   1.857       .  S
C2214      C2215   1.513       .  A
C2215      C2216   1.466       .  A
C2215     Br2224   1.939       .  S
C2216     Br2220   1.967       .  S
C2225      C2226   1.529       .  A
C2225      C2230   1.463       .  A
C2226      C2227   1.456       .  A
C2226     Br2238   1.926       .  S
C2227      C2228   1.371       .  A
C2227     Br2242   1.992       .  S
C2228      C2231   1.517       .  S
C2228      C2229   1.400       .  A
C2229      C2230   1.460       .  A
C2229     Br2237   1.985       .  S
C2230     Br2241   1.916       .  S
C2231      C2232   1.427       .  A
C2231      C2236   1.408       .  A
C2232      C2233   1.410       .  A
C2232     Br2243   1.935       .  S
C2233      C2234   1.412       .  A
C2233     Br2239   1.940       .  S
C2234      C2235   1.409       .  A
C2235      C2236   1.401       .  A
C2235     Br2244   1.941       .  S
C2236     Br2240   1.897       .  S
C2245      C2246   1.497       .  A
C2245      C2250   1.484       .  A
C2246      C2247   1.459       .  A
C2246     Br2258   1.885       .  S
C2247      C2248   1.401       .  A
C2247     Br2262   1.978       .  S
C2248      C2251   1.531       .  S
C2248      C2249   1.383       .  A
C2249      C2250   1.441       .  A
C2249     Br2257   1.961       .  S
C2250     Br2261   1.906       .  S
C2251      C2252   1.424       .  A
C2251      C2256   1.432       .  A
C2252      C2253   1.403       .  A
C2252     Br2263   1.914       .  S
C2253      C2254   1.397       .  A
C2253     Br2259   1.932       .  S
C2254      C2255   1.409       .  A
C2255      C2256   1.420       .  A
C2255     Br2264   1.932       .  S
C2256     Br2260   1.935       .  S
C2265      C2266   1.421       .  A
C2265      C2270   1.418       .  A
C2266      C2267   1.409       .  A
C2266     Br2278   1.934       .  S
C2267      C2268   1.409       .  A
C2267     Br2282   1.917       .  S
C2268      C2271   1.524       .  S
C2268      C2269   1.408       .  A
C2269      C2270   1.405       .  A
C2269     Br2277   1.904       .  S
C2270     Br2281   1.940       .  S
C2271      C2272   1.401       .  A
C2271      C2276   1.380       .  A
C2272      C2273   1.442       .  A
C2272     Br2283   1.924       .  S
C2273      C2274   1.413       .  A
C2273     Br2279   1.858       .  S
C2274      C2275   1.512       .  A
C2275      C2276   1.439       .  A
C2275     Br2284   1.987       .  S
C2276     Br2280   1.965       .  S
C2285      C2286   1.496       .  A
C2285      C2290   1.514       .  A
C2286      C2287   1.429       .  A
C2286     Br2298   1.922       .  S
C2287      C2288   1.379       .  A
C2287     Br2302   1.933       .  S
C2288      C2291   1.512       .  S
C2288      C2289   1.389       .  A
C2289      C2290   1.438       .  A
C2289     Br2297   1.957       .  S
C2290     Br2301   1.965       .  S
C2291      C2292   1.419       .  A
C2291      C2296   1.424       .  A
C2292      C2293   1.406       .  A
C2292     Br2303   1.930       .  S
C2293      C2294   1.402       .  A
C2293     Br2299   1.926       .  S
C2294      C2295   1.406       .  A
C2295      C2296   1.413       .  A
C2295     Br2304   1.932       .  S
C2296     Br2300   1.930       .  S
