geometry optimzed in LAMMPS
_audit_creation_date              2020-11-30 
_audit_creation_method            'lammps2cif' 
_symmetry_space_group_name_H-M    'P1' 
_symmetry_Int_Tables_number       1 
_symmetry_cell_setting            triclinic 
loop_ 
_symmetry_equiv_pos_as_xyz 
  x,y,z 
_cell_length_a                    31.889081843193278 
_cell_length_b                    32.03958701733232 
_cell_length_c                    33.080975821477615 
_cell_angle_alpha                 90.27627569865764 
_cell_angle_beta                  88.79157202414386 
_cell_angle_gamma                 120.57280296700247 
loop_ 
_atom_site_label 
_atom_site_type_symbol 
_atom_site_fract_x 
_atom_site_fract_y 
_atom_site_fract_z 
_atom_site_charge 
O1          O  0.95952034  0.43333049  0.23713338    -0.57140
C2          C  0.93027132  0.31200085  0.30647923     0.75490
O3          O  0.06052404  0.39218655  0.31143369    -0.58300
C4          C  0.99970922  0.46618603  0.22187899     0.75460
C5          C  0.00599631  0.47203283  0.02074357     0.77850
Cd6        Cd  0.99856202  0.41054588  0.28894522     1.37470
O7          O  0.93366099  0.32772390  0.27074315    -0.57140
O8          O  0.96550840  0.44230789  0.33872097    -0.55950
C9          C  0.06107310  0.37243435  0.27829897     0.77810
O10         O  0.04384797  0.47390275  0.33903649    -0.58320
O11         O  0.94915366  0.34352566  0.33386532    -0.56770
O12         O  0.03841304  0.47227051  0.23727697    -0.56760
O13         O  0.04100987  0.37978006  0.24877939    -0.55930
O14         O  0.04836106  0.53367240  0.06986427    -0.57140
C15         C  0.07384569  0.65599683  0.13946470     0.75490
O16         O  0.94241200  0.57045988  0.14260707    -0.58300
C17         C  0.00824224  0.50215248  0.05485144     0.75460
C18         C  0.00204641  0.49645536  0.18810390     0.77850
Cd19       Cd  0.00932684  0.55720387  0.12292933     1.37460
O20         O  0.07861964  0.63834806  0.10638508    -0.57140
O21         O  0.04273265  0.52742065  0.17235254    -0.55950
C22         C  0.94899949  0.59676591  0.11178497     0.77810
O23         O  0.96403601  0.49333457  0.17364250    -0.58320
O24         O  0.04847626  0.62590169  0.16698764    -0.56770
O25         O  0.96952784  0.49713013  0.07091229    -0.56760
O26         O  0.97600373  0.59581704  0.08373653    -0.55930
O27         O  0.40532557  0.33822648  0.20650415    -0.57140
C28         C  0.47481673  0.46912799  0.17969711     0.75490
O29         O  0.33974845  0.37891191  0.27995381    -0.58300
C30         C  0.38800515  0.30831408  0.23565716     0.75460
C31         C  0.47295658  0.46454144  0.31258342     0.77850
Cd32       Cd  0.41830600  0.40793186  0.24570621     1.37470
O33         O  0.48410699  0.43863608  0.19503666    -0.57140
O34         O  0.48043399  0.43237936  0.29752088    -0.55950
C35         C  0.31611812  0.37093393  0.24775960     0.77810
O36         O  0.43963044  0.46947489  0.29737872    -0.58320
O37         O  0.43935991  0.47158585  0.19498853    -0.56770
O38         O  0.39483725  0.32622653  0.27077896    -0.56760
O39         O  0.34119772  0.38925117  0.21569549    -0.55930
O40         O  0.49348236  0.52681147  0.02756871    -0.57140
C41         C  0.59294110  0.65634914  0.07299846     0.75490
O42         O  0.53775392  0.49554363  0.12948720    -0.58300
C43         C  0.50178613  0.49521474  0.01247345     0.75460
C44         C  0.65992572  0.59407693  0.07408178     0.77850
Cd45       Cd  0.55803420  0.55605360  0.07676044     1.37470
O46         O  0.57670155  0.63045342  0.04173031    -0.57140
O47         O  0.63556072  0.58238740  0.04207714    -0.55950
C48         C  0.50354022  0.49962864  0.14540885     0.77810
O49         O  0.63597292  0.57889244  0.10708583    -0.58320
O50         O  0.58044451  0.63406191  0.10659425    -0.56770
O51         O  0.53632882  0.49174832  0.02706377    -0.56760
O52         O  0.49501650  0.53072728  0.13010383    -0.55930
O53         O  0.54612208  0.02157645  0.08717762    -0.57140
C54         C  0.66865111  0.05161337  0.01937480     0.75490
O55         O  0.58501316  0.91949038  0.00715421    -0.58300
C56         C  0.51378982  0.98218973  0.10350438     0.75460
C57         C  0.50706018  0.97696686  0.30394955     0.77850
Cd58       Cd  0.56886018  0.98195110  0.03423277     1.37470
O59         O  0.64989809  0.04816853  0.05428428    -0.57140
O60         O  0.53951598  0.01688122  0.98506374    -0.55950
C61         C  0.60658795  0.91798551  0.03835831     0.77810
O62         O  0.50276277  0.93858181  0.31891742    -0.58320
O63         O  0.63918290  0.03131418  0.32433309    -0.56770
O64         O  0.50804632  0.94322375  0.08849036    -0.56760
O65         O  0.60197786  0.93852690  0.06949966    -0.55930
O66         O  0.44294691  0.93658428  0.25652890    -0.57140
C67         C  0.32362973  0.91309853  0.18278342     0.75490
O68         O  0.41540191  0.04840894  0.18683510    -0.58300
C69         C  0.47674392  0.97593757  0.27089516     0.75460
C70         C  0.48363183  0.98129037  0.13783384     0.77850
Cd71       Cd  0.42239986  0.97726596  0.20375401     1.37470
O72         O  0.33807815  0.90976961  0.21745689    -0.57140
O73         O  0.45258661  0.94158163  0.15449948    -0.55950
C74         C  0.38641808  0.04146371  0.21638110     0.77810
O75         O  0.48677086  0.01973514  0.15175617    -0.58320
O76         O  0.35657652  0.93844382  0.15685776    -0.56770
O77         O  0.48394267  0.01498771  0.25504491    -0.56760
O78         O  0.38237436  0.01136098  0.24297478    -0.55930
C79         C  0.89717641  0.74525513  0.11395524     0.01240
C80         C  0.85837674  0.74254144  0.09417413     0.01240
C81         C  0.76795135  0.84357623  0.05154310     0.01240
C82         C  0.76851495  0.88506521  0.04096774     0.01240
C83         C  0.13242791  0.88449305  0.15711841     0.01240
C84         C  0.09261155  0.84457480  0.14256709     0.01240
C85         C  0.22687950  0.07525681  0.20241153     0.01240
C86         C  0.22543913  0.11554403  0.21262725     0.01240
C87         C  0.90236153  0.12137430  0.33070690     0.01240
C88         C  0.86268501  0.08312644  0.01518311     0.01240
C89         C  0.08050081  0.20464984  0.25714843     0.01240
C90         C  0.12216188  0.20478998  0.24747540     0.01240
C91         C  0.94261068  0.11825527  0.30986024     0.00520
C92         C  0.94636491  0.12444116  0.26769903    -0.11360
C93         C  0.99167783  0.14541235  0.24763304     0.02750
C94         C  0.03413892  0.16040143  0.26989072     0.00430
C95         C  0.02900153  0.14533550  0.31050714    -0.11290
C96         C  0.98336025  0.12405040  0.33059525     0.02640
H97         H  0.91465678  0.11781387  0.25103279     0.15620
H98         H  0.06124912  0.15541565  0.32778369     0.15620
C99         C  0.98001679  0.11190223  0.37288772     0.37270
C100        C  0.99392816  0.15510096  0.20488859     0.37180
N101        N  0.97753126  0.10172739  0.40672604    -0.43070
N102        N  0.99455594  0.16188530  0.17050468    -0.43070
C103        C  0.17946558  0.11542984  0.22193147     0.00520
C104        C  0.15654737  0.12528494  0.19086766    -0.11360
C105        C  0.12930482  0.14764194  0.19935709     0.02750
C106        C  0.12502665  0.16052534  0.23949132     0.00430
C107        C  0.14046832  0.14257468  0.27088628    -0.11290
C108        C  0.16724393  0.11976528  0.26236330     0.02640
H109        H  0.16372730  0.11992720  0.15976020     0.15620
H110        H  0.13604506  0.15069727  0.30193888     0.15620
C111        C  0.18520123  0.10468594  0.29558713     0.37270
C112        C  0.11012618  0.16087846  0.16589040     0.37180
N113        N  0.19924579  0.09227428  0.32227202    -0.43070
N114        N  0.09487766  0.17052784  0.13832551    -0.43070
C115        C  0.13324841  0.92956176  0.16982005     0.00520
C116        C  0.14521827  0.96579045  0.14079771    -0.11360
C117        C  0.16981841  0.01482018  0.15182499     0.02750
C118        C  0.18286783  0.02791747  0.19246803     0.00430
C119        C  0.16309086  0.99130872  0.22212604    -0.11290
C120        C  0.13793786  0.94231649  0.21107666     0.02640
H121        H  0.13977857  0.95620667  0.10913010     0.15620
H122        H  0.17092506  0.00081071  0.25364766     0.15620
C123        C  0.12039333  0.90577895  0.24245540     0.37270
C124        C  0.18421857  0.05069243  0.12029430     0.37180
N125        N  0.10598098  0.87652412  0.26768267    -0.43070
N126        N  0.19451484  0.07847950  0.09429955    -0.43070
C127        C  0.85853543  0.03520621  0.02296033     0.00520
C128        C  0.85147638  0.00449237  0.99026764    -0.11360
C129        C  0.82876457  0.95412885  0.99599466     0.02750
C130        C  0.81330261  0.93369320  0.03518824     0.00430
C131        C  0.82748627  0.96524334  0.06825054    -0.11290
C132        C  0.84917929  0.01547172  0.06247569     0.02640
H133        H  0.85885888  0.01919900  0.95980608     0.15620
H134        H  0.81648991  0.95030854  0.09851917     0.15620
C135        C  0.85795828  0.04530541  0.09768862     0.37270
C136        C  0.81676826  0.92447193  0.96040258     0.37180
N137        N  0.86497374  0.06830802  0.12654253    -0.43070
N138        N  0.80749233  0.90226028  0.93089657    -0.42880
C139        C  0.94281881  0.79203662  0.12367955     0.00520
C140        C  0.97647346  0.81603448  0.09173853    -0.11360
C141        C  0.02692975  0.84099434  0.09838859     0.02750
C142        C  0.04439383  0.84093356  0.13721096     0.00430
C143        C  0.01112335  0.82458080  0.16987128    -0.11290
C144        C  0.96081436  0.80143357  0.16349274     0.02640
H145        H  0.96365557  0.81097767  0.06102784     0.15620
H146        H  0.02419662  0.82669000  0.20021239     0.15620
C147        C  0.92897499  0.78668975  0.19859732     0.37270
C148        C  0.05994954  0.86499460  0.06472393     0.37180
N149        N  0.90527572  0.77677086  0.22789005    -0.43070
N150        N  0.08593837  0.88523691  0.03762203    -0.43070
C151        C  0.81229030  0.84116242  0.06223687     0.00520
C152        C  0.81909397  0.83610524  0.10342423    -0.11360
C153        C  0.83722183  0.80634952  0.11559491     0.02750
C154        C  0.85647430  0.78794962  0.08647842     0.00430
C155        C  0.86237029  0.80520567  0.04659988    -0.11290
C156        C  0.83650734  0.82734893  0.03362170     0.02640
H157        H  0.80340789  0.84900535  0.12604566     0.15620
H158        H  0.87918530  0.79313356  0.02419769     0.15620
C159        C  0.82916105  0.82756517  0.99084976     0.37270
C160        C  0.82937134  0.79015661  0.15707888     0.37180
N161        N  0.82362240  0.82557358  0.28964031    -0.43070
N162        N  0.82171692  0.77700131  0.19035848    -0.43070
C163        C  0.17940129  0.88512858  0.16128793     0.00520
C164        C  0.18788246  0.86614819  0.19631853    -0.11360
C165        C  0.23340538  0.87080423  0.20290420     0.02750
C166        C  0.27151395  0.89454418  0.17374050     0.00430
C167        C  0.26134092  0.90980332  0.13726708    -0.11290
C168        C  0.21626626  0.90592171  0.13111531     0.02640
H169        H  0.15933016  0.84883474  0.21919351     0.15620
H170        H  0.28973341  0.92785348  0.11426556     0.15620
C171        C  0.20971444  0.92544138  0.09412944     0.37270
C172        C  0.24016629  0.85250366  0.24048539     0.37180
N173        N  0.20515649  0.94136819  0.06433563    -0.43070
N174        N  0.24534989  0.83778412  0.27069663    -0.43070
C175        C  0.27301076  0.07463622  0.20704037     0.00520
C176        C  0.28110946  0.05974603  0.24438403    -0.11360
C177        C  0.32093512  0.05345145  0.24975119     0.02750
C178        C  0.35373331  0.06190904  0.21700945     0.00430
C179        C  0.34799590  0.08120709  0.18084979    -0.11290
C180        C  0.30808779  0.08756733  0.17562712     0.02640
H181        H  0.25544517  0.05186390  0.26928188     0.15620
H182        H  0.37301421  0.08852943  0.15554650     0.15620
C183        C  0.30386435  0.10632135  0.13740624     0.37270
C184        C  0.32585030  0.03661153  0.28881070     0.37180
N185        N  0.30213016  0.12188063  0.10641063    -0.43070
N186        N  0.32948950  0.02304413  0.32017353    -0.43070
C187        C  0.72181022  0.07156835  0.01331043     0.00520
C188        C  0.75331268  0.09642183  0.04520211    -0.11360
C189        C  0.80035877  0.10310151  0.04592486     0.02750
C190        C  0.81551192  0.08247682  0.01533809     0.00430
C191        C  0.78578072  0.06151815  0.31524925    -0.11290
C192        C  0.74002385  0.05709489  0.31335902     0.02640
H193        H  0.74056827  0.10913940  0.07037668     0.15620
H194        H  0.79844615  0.04829028  0.29038011     0.15620
C195        C  0.71228929  0.03573469  0.27739630     0.37270
C196        C  0.83185683  0.13130097  0.07815819     0.37180
N197        N  0.69048301  0.01903317  0.24832575    -0.43070
N198        N  0.85653021  0.15483098  0.10403602    -0.43070
C199        C  0.64019294  0.89853577  0.03789820     0.00520
C200        C  0.65746915  0.89275347  0.07498044    -0.11360
C201        C  0.69792401  0.88669872  0.07655027     0.02750
C202        C  0.72186410  0.88576244  0.04043421     0.00430
C203        C  0.70320324  0.88902349  0.00337003    -0.11290
C204        C  0.66269591  0.89498568  0.00169060     0.02640
H205        H  0.64097814  0.89561368  0.10306715     0.15620
H206        H  0.72102117  0.88816887  0.97548813     0.15620
C207        C  0.64739231  0.90040243  0.96227637     0.37270
C208        C  0.71585783  0.88465999  0.11575954     0.37180
N209        N  0.63535496  0.90464773  0.26388003    -0.43070
N210        N  0.72996323  0.88315422  0.14735356    -0.43070
C211        C  0.63082182  0.70858089  0.06963992     0.00520
C212        C  0.64566487  0.72919885  0.03074626    -0.11360
C213        C  0.68986882  0.77260411  0.02419429     0.02750
C214        C  0.71982631  0.79740046  0.05710124     0.00430
C215        C  0.70333123  0.77851629  0.09621085    -0.11290
C216        C  0.65990005  0.73460518  0.10278757     0.02640
H217        H  0.62429448  0.70977202  0.00482809     0.15620
H218        H  0.72446982  0.79758163  0.12210299     0.15620
C219        C  0.64835279  0.71619534  0.14377602     0.37270
C220        C  0.70444506  0.78929534  0.98308146     0.37180
N221        N  0.63970748  0.70157700  0.17665973    -0.43070
N222        N  0.71512963  0.80185303  0.94980964    -0.43070
C223        C  0.81434416  0.69465989  0.08005014     0.00520
C224        C  0.78808687  0.69509262  0.04632383    -0.11360
C225        C  0.73846495  0.66109697  0.04239639     0.02750
C226        C  0.71338588  0.62663783  0.07350457     0.00430
C227        C  0.74001909  0.62468297  0.10569750    -0.11290
C228        C  0.79090186  0.65179178  0.10415349     0.02640
H229        H  0.80530199  0.72233989  0.02308568     0.15620
H230        H  0.72189108  0.59504402  0.12733167     0.15620
C231        C  0.80870682  0.61859657  0.10185826     0.37270
C232        C  0.71388379  0.66537177  0.00786062     0.37180
N233        N  0.81926197  0.58910540  0.09843287    -0.43070
N234        N  0.69441559  0.66893753  0.98009574    -0.43070
C235        C  0.35473880  0.25586477  0.22824081     0.00520
C236        C  0.33066047  0.24324570  0.19119576    -0.11360
C237        C  0.28913229  0.19793977  0.18561138     0.02750
C238        C  0.27164008  0.16306370  0.21693586     0.00430
C239        C  0.29776734  0.17408887  0.25293733    -0.11290
C240        C  0.33874532  0.22016359  0.25898445     0.02640
H241        H  0.34199769  0.27013322  0.16728866     0.15620
H242        H  0.28539518  0.14717261  0.27682057     0.15620
C243        C  0.36289651  0.23000231  0.29721455     0.37270
C244        C  0.26425201  0.18950577  0.14788600     0.37180
N245        N  0.38218651  0.23775088  0.32790374    -0.43070
N246        N  0.24514821  0.18422142  0.11736361    -0.43070
C247        C  0.16975346  0.25128214  0.24796532     0.00520
C248        C  0.19176921  0.27517775  0.21150463    -0.11360
C249        C  0.23730419  0.31793292  0.21090653     0.02750
C250        C  0.26271608  0.33637839  0.24737281     0.00430
C251        C  0.23915447  0.31369749  0.28404067    -0.11290
C252        C  0.19322404  0.27161185  0.28460584     0.02640
H253        H  0.17367959  0.26009799  0.18332673     0.15620
H254        H  0.25773326  0.32720905  0.31236634     0.15620
C255        C  0.17214675  0.24868033  0.32312095     0.37270
C256        C  0.25729650  0.34097131  0.17223694     0.37180
N257        N  0.15556503  0.23050117  0.35411053    -0.43070
N258        N  0.27304914  0.35951302  0.14120986    -0.43070
C259        C  0.93053511  0.63084648  0.11039419     0.00520
C260        C  0.91139594  0.63918605  0.14621264    -0.11360
C261        C  0.89830759  0.67479017  0.14790075     0.02750
C262        C  0.90549920  0.70373323  0.11348261     0.00430
C263        C  0.92456719  0.69556841  0.07776188    -0.11290
C264        C  0.93672824  0.65944155  0.07572247     0.02640
H265        H  0.90581874  0.61731986  0.17290302     0.15620
H266        H  0.93015920  0.71782953  0.05131156     0.15620
C267        C  0.95590383  0.65333818  0.03763292     0.37270
C268        C  0.87076475  0.67532567  0.18281865     0.37180
N269        N  0.97140483  0.64875236  0.34040085    -0.43070
N270        N  0.84703038  0.67354912  0.21044973    -0.43070
C271        C  0.08981332  0.70820866  0.14348692     0.00520
C272        C  0.10564580  0.73734380  0.10842891    -0.11360
C273        C  0.10733516  0.78190244  0.10718499     0.02750
C274        C  0.09250507  0.79792901  0.14142657     0.00430
C275        C  0.07974038  0.77046961  0.17718437    -0.11290
C276        C  0.07898553  0.72650748  0.17878461     0.02640
H277        H  0.11436351  0.72422144  0.08110712     0.15620
H278        H  0.07029828  0.78357453  0.20413853     0.15620
C279        C  0.06569843  0.70073915  0.21694738     0.37270
C280        C  0.12371089  0.80949780  0.07009322     0.37180
N281        N  0.05507355  0.68030194  0.24762299    -0.43070
N282        N  0.13743485  0.83036670  0.03972079    -0.43070
C283        C  0.07809195  0.33726343  0.27464378     0.00520
C284        C  0.08411512  0.32341446  0.23562797    -0.11360
C285        C  0.08576764  0.28112379  0.22924115     0.02750
C286        C  0.08175954  0.25167349  0.26242426     0.00430
C287        C  0.07876705  0.26697864  0.30164746    -0.11290
C288        C  0.07734186  0.30947394  0.30809261     0.02640
H289        H  0.08470467  0.34425090  0.20965761     0.15620
H290        H  0.07655303  0.24513716  0.32738871     0.15620
C291        C  0.07202109  0.32163017  0.34922600     0.37270
C292        C  0.08877035  0.26795214  0.18801982     0.37180
N293        N  0.06783042  0.33124515  0.04892044    -0.43070
N294        N  0.09125345  0.25898710  0.15445419    -0.43070
C295        C  0.90459254  0.16886418  0.32648395     0.00520
C296        C  0.88101669  0.17676877  0.29448133    -0.11360
C297        C  0.88534212  0.22221618  0.28866334     0.02750
C298        C  0.91321764  0.26045395  0.31552057     0.00430
C299        C  0.93440423  0.25134963  0.34862506    -0.11290
C300        C  0.93122774  0.20667867  0.35377933     0.02640
H301        H  0.86016930  0.14774060  0.27347692     0.15620
H302        H  0.95658691  0.28033420  0.36929260     0.15620
C303        C  0.95712595  0.20154978  0.38681605     0.37270
C304        C  0.86131374  0.22867533  0.25483993     0.37180
N305        N  0.97830586  0.19886233  0.41367709    -0.43070
N306        N  0.84188395  0.23370701  0.22775215    -0.43070
O307        O  0.95951775  0.43333002  0.57046771    -0.57140
C308        C  0.93026968  0.31199984  0.63981250     0.75490
O309        O  0.06052258  0.39218739  0.64476750    -0.58300
C310        C  0.99970668  0.46618656  0.55521424     0.75460
C311        C  0.00600251  0.47204473  0.35407736     0.77850
Cd312      Cd  0.99855938  0.41054518  0.62227939     1.37470
O313        O  0.93365977  0.32772304  0.60407642    -0.57140
O314        O  0.96550446  0.44230540  0.67205559    -0.55950
C315        C  0.06107184  0.37243531  0.61163276     0.77810
O316        O  0.04384406  0.47390052  0.67237192    -0.58320
O317        O  0.94915088  0.34352447  0.66719885    -0.56770
O318        O  0.03841045  0.47227138  0.57061261    -0.56760
O319        O  0.04100791  0.37978030  0.58211332    -0.55930
O320        O  0.04836388  0.53368081  0.40320155    -0.57140
C321        C  0.07384522  0.65600052  0.47280193     0.75490
O322        O  0.94241222  0.57046761  0.47594570    -0.58300
C323        C  0.00824615  0.50216145  0.38818681     0.75460
C324        C  0.00204411  0.49645673  0.52143980     0.77850
Cd325      Cd  0.00932564  0.55720764  0.45626695     1.37460
O326        O  0.07861940  0.63835114  0.43972280    -0.57140
O327        O  0.04273058  0.52742351  0.50568984    -0.55950
C328        C  0.94899784  0.59676943  0.44512110     0.77810
O329        O  0.96403376  0.49333535  0.50697766    -0.58320
O330        O  0.04847449  0.62590593  0.50032476    -0.56770
O331        O  0.96953059  0.49713673  0.40424727    -0.56760
O332        O  0.97599908  0.59581512  0.41707269    -0.55930
O333        O  0.40532754  0.33823340  0.53983309    -0.57140
C334        C  0.47482377  0.46913794  0.51302933     0.75490
O335        O  0.33975131  0.37891995  0.61328313    -0.58300
C336        C  0.38800914  0.30832123  0.56898635     0.75460
C337        C  0.47295756  0.46454548  0.64591454     0.77850
Cd338      Cd  0.41830891  0.40793866  0.57903576     1.37470
O339        O  0.48411260  0.43864496  0.52836871    -0.57140
O340        O  0.48043495  0.43238361  0.63085148    -0.55950
C341        C  0.31612061  0.37093960  0.58108886     0.77810
O342        O  0.43963206  0.46947989  0.63070968    -0.58320
O343        O  0.43936606  0.47159526  0.52831943    -0.56770
O344        O  0.39484274  0.32623396  0.60410811    -0.56760
O345        O  0.34119989  0.38925510  0.54902429    -0.55930
O346        O  0.49349272  0.52682204  0.36090251    -0.57140
C347        C  0.59295632  0.65636202  0.40633330     0.75490
O348        O  0.53776428  0.49555535  0.46282233    -0.58300
C349        C  0.50179363  0.49522257  0.34580908     0.75460
C350        C  0.65993620  0.59408247  0.40741136     0.77850
Cd351      Cd  0.55804585  0.55606416  0.41009436     1.37470
O352        O  0.57671634  0.63046676  0.37506494    -0.57140
O353        O  0.63556792  0.58239156  0.37540847    -0.55950
C354        C  0.50354961  0.49963992  0.47874242     0.77810
O355        O  0.63598711  0.57889978  0.44041721    -0.58320
O356        O  0.58046069  0.63407390  0.43992870    -0.56770
O357        O  0.53633590  0.49175563  0.36039959    -0.56760
O358        O  0.49502682  0.53073890  0.46343679    -0.55930
O359        O  0.54612231  0.02158076  0.42050968    -0.57140
C360        C  0.66865118  0.05162603  0.35270893     0.75490
O361        O  0.58502458  0.91950466  0.34048262    -0.58300
C362        C  0.51379104  0.98219351  0.43683636     0.75460
C363        C  0.50706213  0.97696737  0.63728247     0.77850
Cd364      Cd  0.56886165  0.98195772  0.36756409     1.37470
O365        O  0.64989661  0.04817779  0.38761824    -0.57140
O366        O  0.53951403  0.01688505  0.31839566    -0.55950
C367        C  0.60659451  0.91799595  0.37168853     0.77810
O368        O  0.50276484  0.93858220  0.65224996    -0.58320
O369        O  0.63918475  0.03131351  0.65766593    -0.56770
O370        O  0.50804837  0.94322807  0.42182178    -0.56760
O371        O  0.60197780  0.93853173  0.40283089    -0.55930
O372        O  0.44294927  0.93658523  0.58986141    -0.57140
C373        C  0.32363165  0.91309966  0.51611734     0.75490
O374        O  0.41540410  0.04841056  0.52016825    -0.58300
C375        C  0.47674598  0.97593839  0.60422810     0.75460
C376        C  0.48363328  0.98129310  0.47116635     0.77850
Cd377      Cd  0.42240177  0.97726739  0.53708724     1.37470
O378        O  0.33808036  0.90977157  0.55079090    -0.57140
O379        O  0.45258860  0.94158398  0.48783178    -0.55950
C380        C  0.38642035  0.04146561  0.54971423     0.77810
O381        O  0.48677204  0.01973747  0.48508937    -0.58320
O382        O  0.35657820  0.93844402  0.49019121    -0.56770
O383        O  0.48394448  0.01498865  0.58837833    -0.56760
O384        O  0.38237619  0.01136260  0.57630781    -0.55930
C385        C  0.89717985  0.74526258  0.44728382     0.01240
C386        C  0.85838465  0.74255400  0.42749876     0.01240
C387        C  0.76796317  0.84359325  0.38488062     0.01240
C388        C  0.76852533  0.88508229  0.37430789     0.01240
C389        C  0.13243118  0.88449798  0.49045405     0.01240
C390        C  0.09261377  0.84457923  0.47590476     0.01240
C391        C  0.22688427  0.07526250  0.53574508     0.01240
C392        C  0.22544408  0.11555004  0.54595984     0.01240
C393        C  0.90236357  0.12137475  0.66404004     0.01240
C394        C  0.86268608  0.08314452  0.34852613     0.01240
C395        C  0.08050348  0.20465323  0.59048199     0.01240
C396        C  0.12216478  0.20479409  0.58080822     0.01240
C397        C  0.94261323  0.11825635  0.64319361     0.00520
C398        C  0.94636761  0.12444224  0.60103240    -0.11360
C399        C  0.99168070  0.14541440  0.58096658     0.02750
C400        C  0.03414190  0.16040441  0.60322438     0.00430
C401        C  0.02900461  0.14533865  0.64384086    -0.11290
C402        C  0.98336314  0.12405256  0.66392880     0.02640
H403        H  0.91465932  0.11781423  0.58436603     0.15620
H404        H  0.06125229  0.15541951  0.66111754     0.15620
C405        C  0.98001966  0.11190436  0.70622125     0.37270
C406        C  0.99393091  0.15510305  0.53822214     0.37180
N407        N  0.97753407  0.10172946  0.74005956    -0.43070
N408        N  0.99455849  0.16188739  0.50383826    -0.43070
C409        C  0.17947058  0.11543580  0.55526444     0.00520
C410        C  0.15655130  0.12528970  0.52420075    -0.11360
C411        C  0.12930809  0.14764600  0.53269024     0.02750
C412        C  0.12503026  0.16052981  0.57282440     0.00430
C413        C  0.14047308  0.14258026  0.60421936    -0.11290
C414        C  0.16724945  0.11977168  0.59569633     0.02640
H415        H  0.16373075  0.11993148  0.49309328     0.15620
H416        H  0.13605013  0.15070321  0.63527193     0.15620
C417        C  0.18520799  0.10469360  0.62892012     0.37270
C418        C  0.11012839  0.16088145  0.49922363     0.37180
N419        N  0.19925355  0.09228295  0.65560498    -0.43070
N420        N  0.09487908  0.17053007  0.47165885    -0.43070
C421        C  0.13325258  0.92956728  0.50315495     0.00520
C422        C  0.14522322  0.96579563  0.47413212    -0.11360
C423        C  0.16982339  0.01482546  0.48515892     0.02750
C424        C  0.18287245  0.02792322  0.52580192     0.00430
C425        C  0.16309496  0.99131492  0.55546031    -0.11290
C426        C  0.13794165  0.94232254  0.54441141     0.02640
H427        H  0.13978401  0.95621152  0.44246459     0.15620
H428        H  0.17092891  0.00081734  0.58698189     0.15620
C429        C  0.12039643  0.90578535  0.57579048     0.37270
C430        C  0.18422397  0.05069727  0.45362780     0.37180
N431        N  0.10598354  0.87653075  0.60101796    -0.43070
N432        N  0.19452052  0.07848395  0.42763269    -0.43070
C433        C  0.85853655  0.03522472  0.35630566     0.00520
C434        C  0.85148675  0.00451289  0.32361352    -0.11360
C435        C  0.82877872  0.95414962  0.32933979     0.02750
C436        C  0.81331171  0.93371206  0.36853226     0.00430
C437        C  0.82748613  0.96526106  0.40159508    -0.11290
C438        C  0.84917418  0.01548900  0.39582082     0.02640
H439        H  0.85887307  0.01922030  0.29315214     0.15620
H440        H  0.81648530  0.95032492  0.43186294     0.15620
C441        C  0.85794052  0.04532012  0.43103362     0.37270
C442        C  0.81679000  0.92449462  0.29374707     0.37180
N443        N  0.86494481  0.06832016  0.45988766    -0.43070
N444        N  0.80752013  0.90228532  0.26424006    -0.42880
C445        C  0.94282189  0.79204151  0.45701443     0.00520
C446        C  0.97647821  0.81604792  0.42507617    -0.11360
C447        C  0.02693413  0.84100664  0.43172810     0.02750
C448        C  0.04439606  0.84093827  0.47054977     0.00430
C449        C  0.01112351  0.82457707  0.50320871    -0.11290
C450        C  0.96081487  0.80142828  0.49682845     0.02640
H451        H  0.96366220  0.81099792  0.39436521     0.15620
H452        H  0.02419505  0.82667968  0.53354952     0.15620
C453        C  0.92897303  0.78666909  0.53193202     0.37270
C454        C  0.05995573  0.86501154  0.39806538     0.37180
N455        N  0.90527140  0.77673732  0.56122419    -0.43070
N456        N  0.08594611  0.88525692  0.37096506    -0.43070
C457        C  0.81230319  0.84118042  0.39557253     0.00520
C458        C  0.81910727  0.83612057  0.43675930    -0.11360
C459        C  0.83723464  0.80636340  0.44892705     0.02750
C460        C  0.85648650  0.78796539  0.41980824     0.00430
C461        C  0.86238501  0.80522663  0.37993144    -0.11290
C462        C  0.83652087  0.82736952  0.36695558     0.02640
H463        H  0.80342115  0.84901895  0.45938223     0.15620
H464        H  0.87919831  0.79315434  0.35752771     0.15620
C465        C  0.82917071  0.82758315  0.32418415     0.37270
C466        C  0.82938451  0.79016737  0.49041017     0.37180
N467        N  0.82362430  0.82557400  0.62297368    -0.43070
N468        N  0.82173096  0.77700992  0.52368921    -0.43070
C469        C  0.17940418  0.88513271  0.49462328     0.00520
C470        C  0.18788568  0.86615340  0.52965439    -0.11360
C471        C  0.23340800  0.87080791  0.53623946     0.02750
C472        C  0.27151587  0.89454575  0.50707489     0.00430
C473        C  0.26134245  0.90980381  0.47060109    -0.11290
C474        C  0.21626820  0.90592333  0.46444972     0.02640
H475        H  0.15933409  0.84884184  0.55253015     0.15620
H476        H  0.28973441  0.92785231  0.44759890     0.15620
C477        C  0.20971594  0.92544164  0.42746326     0.37270
C478        C  0.24016908  0.85250789  0.57382089     0.37180
N479        N  0.20515776  0.94136748  0.39766898    -0.43070
N480        N  0.24535278  0.83778872  0.60403229    -0.43070
C481        C  0.27301536  0.07464164  0.54037403     0.00520
C482        C  0.28111348  0.05975068  0.57771755    -0.11360
C483        C  0.32093831  0.05345470  0.58308451     0.02750
C484        C  0.35373635  0.06191184  0.55034275     0.00430
C485        C  0.34799968  0.08121078  0.51418329    -0.11290
C486        C  0.30809233  0.08757230  0.50896079     0.02640
H487        H  0.25544925  0.05186881  0.60261539     0.15620
H488        H  0.37301792  0.08853283  0.48888000     0.15620
C489        C  0.30386954  0.10632709  0.47074007     0.37270
C490        C  0.32585269  0.03661370  0.62214379     0.37180
N491        N  0.30213585  0.12188698  0.43974461    -0.43070
N492        N  0.32949124  0.02304542  0.65350643    -0.43070
C493        C  0.72181081  0.07158408  0.34664573     0.00520
C494        C  0.75331197  0.09644025  0.37853744    -0.11360
C495        C  0.80035861  0.10312151  0.37926228     0.02750
C496        C  0.81551289  0.08249451  0.34867838     0.00430
C497        C  0.78578271  0.06151801  0.64858234    -0.11290
C498        C  0.74002581  0.05709468  0.64669201     0.02640
H499        H  0.74056615  0.10915880  0.40371033     0.15620
H500        H  0.79844824  0.04829020  0.62371322     0.15620
C501        C  0.71229140  0.03573457  0.61072920     0.37270
C502        C  0.83185609  0.13132517  0.41149446     0.37180
N503        N  0.69048523  0.01903313  0.58165859    -0.43070
N504        N  0.85652912  0.15485852  0.43737116    -0.43070
C505        C  0.64020106  0.89854803  0.37123009     0.00520
C506        C  0.65747271  0.89276225  0.40831346    -0.11360
C507        C  0.69792807  0.88670856  0.40988601     0.02750
C508        C  0.72187339  0.88577710  0.37377154     0.00430
C509        C  0.70321742  0.88904207  0.33670609    -0.11290
C510        C  0.66270933  0.89500265  0.33502392     0.02640
H511        H  0.64097760  0.89561881  0.43639914     0.15620
H512        H  0.72103983  0.88819168  0.30882540     0.15620
C513        C  0.64740998  0.90042187  0.29560862     0.37270
C514        C  0.71585705  0.88466633  0.44909658     0.37180
N515        N  0.63535688  0.90464775  0.59721325    -0.43070
N516        N  0.72995855  0.88315786  0.48069168    -0.43070
C517        C  0.63083579  0.70859454  0.40297550     0.00520
C518        C  0.64567767  0.72921449  0.36408234    -0.11360
C519        C  0.68988101  0.77262083  0.35753088     0.02750
C520        C  0.71983883  0.79741626  0.39043794     0.00430
C521        C  0.70334440  0.77853033  0.42954719    -0.11290
C522        C  0.65991376  0.73461850  0.43612336     0.02640
H523        H  0.62430705  0.70978837  0.33816407     0.15620
H524        H  0.72448292  0.79759515  0.45543952     0.15620
C525        C  0.64836609  0.71620817  0.47711164     0.37270
C526        C  0.70445654  0.78931431  0.31641843     0.37180
N527        N  0.63972022  0.70158960  0.50999527    -0.43070
N528        N  0.71514106  0.80187431  0.28314707    -0.43070
C529        C  0.81435203  0.69467582  0.41336791     0.00520
C530        C  0.78808519  0.69511749  0.37965197    -0.11360
C531        C  0.73846452  0.66111689  0.37572704     0.02750
C532        C  0.71339579  0.62664563  0.40682927     0.00430
C533        C  0.74003935  0.62468216  0.43901030    -0.11290
C534        C  0.79092215  0.65179434  0.43745510     0.02640
H535        H  0.80529078  0.72237385  0.35642000     0.15620
H536        H  0.72191974  0.59503399  0.46063696     0.15620
C537        C  0.80872974  0.61860282  0.43511635     0.37270
C538        C  0.71387391  0.66539734  0.34120071     0.37180
N539        N  0.81929149  0.58911963  0.43165745    -0.43070
N540        N  0.69439859  0.66896693  0.31344271    -0.43070
C541        C  0.35474334  0.25587166  0.56157062     0.00520
C542        C  0.33066405  0.24325169  0.52452602    -0.11360
C543        C  0.28913605  0.19794541  0.51894248     0.02750
C544        C  0.27164503  0.16306988  0.55026737     0.00430
C545        C  0.29777336  0.17409590  0.58626830    -0.11290
C546        C  0.33875115  0.22017098  0.59231458     0.02640
H547        H  0.34200032  0.27013875  0.50061864     0.15620
H548        H  0.28540210  0.14718005  0.61015182     0.15620
C549        C  0.36290338  0.23001061  0.63054425     0.37270
C550        C  0.26425473  0.18951051  0.48121755     0.37180
N551        N  0.38219420  0.23775992  0.66123309    -0.43070
N552        N  0.24515013  0.18422552  0.45069548    -0.43070
C553        C  0.16975606  0.25128674  0.58129718     0.00520
C554        C  0.19177111  0.27518146  0.54483600    -0.11360
C555        C  0.23730602  0.31793679  0.54423698     0.02750
C556        C  0.26271858  0.33638343  0.58070281     0.00430
C557        C  0.23915771  0.31370335  0.61737114    -0.11290
C558        C  0.19322739  0.27161749  0.61793722     0.02640
H559        H  0.17368102  0.26010088  0.51665843     0.15620
H560        H  0.25773701  0.32721571  0.64569650     0.15620
C561        C  0.17215105  0.24868673  0.65645276     0.37270
C562        C  0.25729753  0.34097418  0.50556693     0.37180
N563        N  0.15557005  0.23050812  0.68744265    -0.43070
N564        N  0.27304949  0.35951507  0.47453947    -0.43070
C565        C  0.93053433  0.63085088  0.44372657     0.00520
C566        C  0.91136853  0.63917335  0.47953752    -0.11360
C567        C  0.89828163  0.67477884  0.48122356     0.02750
C568        C  0.90550050  0.70373942  0.44681148     0.00430
C569        C  0.92459268  0.69559016  0.41109794    -0.11290
C570        C  0.93675267  0.65946266  0.40905991     0.02640
H571        H  0.90577112  0.61729408  0.50622341     0.15620
H572        H  0.93020367  0.71786343  0.38465182     0.15620
C573        C  0.95595246  0.65337591  0.37097666     0.37270
C574        C  0.87072010  0.67530475  0.51613154     0.37180
N575        N  0.97140744  0.64874961  0.67373889    -0.43070
N576        N  0.84697236  0.67352347  0.54375410    -0.43070
C577        C  0.08981421  0.70821263  0.47682365     0.00520
C578        C  0.10564335  0.73734631  0.44176476    -0.11360
C579        C  0.10733292  0.78190503  0.44052117     0.02750
C580        C  0.09250702  0.79793336  0.47476412     0.00430
C581        C  0.07974602  0.77047552  0.51052261    -0.11290
C582        C  0.07899046  0.72651307  0.51212232     0.02640
H583        H  0.11435771  0.72422254  0.41444212     0.15620
H584        H  0.07030716  0.78358177  0.53747767     0.15620
C585        C  0.06570664  0.70074595  0.55028562     0.37270
C586        C  0.12370416  0.80949864  0.40342834     0.37180
N587        N  0.05508423  0.68030965  0.58096161    -0.43070
N588        N  0.13742429  0.83036627  0.37305508    -0.43070
C589        C  0.07809178  0.33726527  0.60797744     0.00520
C590        C  0.08411511  0.32341652  0.56896159    -0.11360
C591        C  0.08576865  0.28112640  0.56257473     0.02750
C592        C  0.08176142  0.25167647  0.59575784     0.00430
C593        C  0.07876883  0.26698149  0.63498107    -0.11290
C594        C  0.07734262  0.30947624  0.64142625     0.02640
H595        H  0.08470397  0.34425264  0.54299125     0.15620
H596        H  0.07655548  0.24514029  0.66072230     0.15620
C597        C  0.07202173  0.32163229  0.68255967     0.37270
C598        C  0.08877141  0.26795481  0.52135337     0.37180
N599        N  0.06783315  0.33125476  0.38225675    -0.43070
N600        N  0.09125452  0.25898975  0.48778776    -0.43070
C601        C  0.90459394  0.16886430  0.65981690     0.00520
C602        C  0.88101784  0.17676836  0.62781418    -0.11360
C603        C  0.88534229  0.22221535  0.62199624     0.02750
C604        C  0.91321702  0.26045317  0.64885365     0.00430
C605        C  0.93440397  0.25134939  0.68195816    -0.11290
C606        C  0.93122850  0.20667889  0.68711237     0.02640
H607        H  0.86017097  0.14774011  0.60680969     0.15620
H608        H  0.95658616  0.28033408  0.70262578     0.15620
C609        C  0.95712704  0.20155063  0.72014912     0.37270
C610        C  0.86131371  0.22867403  0.58817274     0.37180
N611        N  0.97830723  0.19886373  0.74701020    -0.43070
N612        N  0.84188378  0.23370534  0.56108488    -0.43070
O613        O  0.95951047  0.43331761  0.90380210    -0.57140
C614        C  0.93026692  0.31198481  0.97314537     0.75490
O615        O  0.06051871  0.39217677  0.97809886    -0.58300
C616        C  0.99969930  0.46617384  0.88854813     0.75460
C617        C  0.00599823  0.47204178  0.68741272     0.77850
Cd618      Cd  0.99855356  0.41053195  0.95561240     1.37470
O619        O  0.93365371  0.32770906  0.93741013    -0.57140
O620        O  0.96550129  0.44229481  0.00538909    -0.55950
C621        C  0.06106843  0.37242582  0.94496362     0.77810
O622        O  0.04384094  0.47388979  0.00570207    -0.58320
O623        O  0.94915007  0.34350885  0.00053199    -0.56770
O624        O  0.03840319  0.47225704  0.90394492    -0.56760
O625        O  0.04100398  0.37977084  0.91544455    -0.55930
O626        O  0.04835863  0.53367587  0.73653850    -0.57140
C627        C  0.07384109  0.65599334  0.80613939     0.75490
O628        O  0.94240903  0.57046456  0.80928460    -0.58300
C629        C  0.00824116  0.50215713  0.72152298     0.75460
C630        C  0.00203683  0.49644586  0.85477507     0.77850
Cd631      Cd  0.00931978  0.55720066  0.78960464     1.37460
O632        O  0.07861528  0.63834314  0.77306074    -0.57140
O633        O  0.04272344  0.52741334  0.83902580    -0.55950
C634        C  0.94899350  0.59676432  0.77845882     0.77810
O635        O  0.96402673  0.49332579  0.84031369    -0.58320
O636        O  0.04846926  0.62589936  0.83366225    -0.56770
O637        O  0.96952530  0.49713175  0.73758343    -0.56760
O638        O  0.97599227  0.59580672  0.75040980    -0.55930
O639        O  0.40532637  0.33822893  0.87316178    -0.57140
C640        C  0.47482332  0.46913587  0.84636033     0.75490
O641        O  0.33974927  0.37891575  0.94661170    -0.58300
C642        C  0.38800880  0.30831679  0.90231510     0.75460
C643        C  0.47295194  0.46453654  0.97924569     0.77850
Cd644      Cd  0.41830698  0.40793347  0.91236480     1.37470
O645        O  0.48411200  0.43864239  0.86169885    -0.57140
O646        O  0.48043140  0.43237654  0.96418145    -0.55950
C647        C  0.31611866  0.37093418  0.91441724     0.77810
O648        O  0.43962657  0.46947097  0.96404058    -0.58320
O649        O  0.43936523  0.47159243  0.86165052    -0.56770
O650        O  0.39484251  0.32622946  0.93743686    -0.56760
O651        O  0.34119802  0.38924823  0.88235247    -0.55930
O652        O  0.49349322  0.52682452  0.69423508    -0.57140
C653        C  0.59295727  0.65636306  0.73966662     0.75490
O654        O  0.53776428  0.49555486  0.79615363    -0.58300
C655        C  0.50179417  0.49522542  0.67914086     0.75460
C656        C  0.65993641  0.59408258  0.74074391     0.77850
Cd657      Cd  0.55804622  0.55606509  0.74342695     1.37470
O658        O  0.57671681  0.63046803  0.70839820    -0.57140
O659        O  0.63556812  0.58239177  0.70874103    -0.55950
C660        C  0.50354959  0.49963908  0.81207413     0.77810
O661        O  0.63598731  0.57890023  0.77374978    -0.58320
O662        O  0.58046186  0.63407474  0.77326194    -0.56770
O663        O  0.53633622  0.49175787  0.69373107    -0.56760
O664        O  0.49502707  0.53073868  0.79676943    -0.55930
O665        O  0.54612420  0.02158018  0.75384312    -0.57140
C666        C  0.66865298  0.05162581  0.68604171     0.75490
O667        O  0.58502621  0.91950440  0.67381577    -0.58300
C668        C  0.51379288  0.98219276  0.77016956     0.75460
C669        C  0.50706165  0.97696360  0.97061708     0.77850
Cd670      Cd  0.56886341  0.98195765  0.70089699     1.37470
O671        O  0.64989835  0.04817809  0.72095092    -0.57140
O672        O  0.53951574  0.01688543  0.65172898    -0.55950
C673        C  0.60659634  0.91799602  0.70502167     0.77810
O674        O  0.50276243  0.93857780  0.98558501    -0.58320
O675        O  0.63918142  0.03130139  0.99099990    -0.56770
O676        O  0.50805003  0.94322746  0.75515452    -0.56760
O677        O  0.60197976  0.93853203  0.73616392    -0.55930
O678        O  0.44294980  0.93658284  0.92319507    -0.57140
C679        C  0.32363330  0.91309820  0.84945079     0.75490
O680        O  0.41540710  0.04840949  0.85350205    -0.58300
C681        C  0.47674665  0.97593561  0.93756217     0.75460
C682        C  0.48363526  0.98129204  0.80449978     0.77850
Cd683      Cd  0.42240372  0.97726587  0.87042083     1.37470
O684        O  0.33808221  0.90976973  0.88412414    -0.57140
O685        O  0.45259045  0.94158277  0.82116492    -0.55950
C686        C  0.38642312  0.04146446  0.88304785     0.77810
O687        O  0.48677427  0.01973631  0.81842328    -0.58320
O688        O  0.35657974  0.93844345  0.82352488    -0.56770
O689        O  0.48394619  0.01498625  0.92171237    -0.56760
O690        O  0.38237868  0.01136139  0.90964147    -0.55930
C691        C  0.89717969  0.74526071  0.78061747     0.01240
C692        C  0.85838507  0.74255274  0.76083182     0.01240
C693        C  0.76796504  0.84359357  0.71821405     0.01240
C694        C  0.76852743  0.88508272  0.70764128     0.01240
C695        C  0.13243152  0.88449275  0.82378678     0.01240
C696        C  0.09261362  0.84457367  0.80923860     0.01240
C697        C  0.22688534  0.07525775  0.86907597     0.01240
C698        C  0.22544482  0.11554528  0.87928970     0.01240
C699        C  0.90236092  0.12135790  0.99736600     0.01240
C700        C  0.86268821  0.08314479  0.68185924     0.01240
C701        C  0.08050178  0.20464557  0.92380926     0.01240
C702        C  0.12216392  0.20478770  0.91413665     0.01240
C703        C  0.94261099  0.11824086  0.97651889     0.00520
C704        C  0.94636578  0.12442937  0.93435793    -0.11360
C705        C  0.99167939  0.14540516  0.91429258     0.02750
C706        C  0.03414056  0.16039571  0.93655057     0.00430
C707        C  0.02900340  0.14532758  0.97716629    -0.11290
C708        C  0.98336151  0.12403797  0.99725372     0.02640
H709        H  0.91465726  0.11780099  0.91769173     0.15620
H710        H  0.06125117  0.15540893  0.99444300     0.15620
C711        C  0.98001830  0.11188711  0.03954549     0.37270
C712        C  0.99392984  0.15509656  0.87154867     0.37180
N713        N  0.97753378  0.10171040  0.07338324    -0.43070
N714        N  0.99455766  0.16188310  0.83716516    -0.43070
C715        C  0.17947113  0.11543057  0.88859401     0.00520
C716        C  0.15655166  0.12528382  0.85753007    -0.11360
C717        C  0.12930830  0.14763998  0.86601919     0.02750
C718        C  0.12503044  0.16052406  0.90615321     0.00430
C719        C  0.14047341  0.14257508  0.93754846    -0.11290
C720        C  0.16724998  0.11976669  0.92902581     0.02640
H721        H  0.16373117  0.11992533  0.82642270     0.15620
H722        H  0.13605039  0.15069830  0.96860092     0.15620
C723        C  0.18520881  0.10468929  0.96224986     0.37270
C724        C  0.11012868  0.16087532  0.83255244     0.37180
N725        N  0.19925459  0.09227921  0.98893496    -0.43070
N726        N  0.09487942  0.17052410  0.80498771    -0.43070
C727        C  0.13325311  0.92956226  0.83648708     0.00520
C728        C  0.14522400  0.96579024  0.80746385    -0.11360
C729        C  0.16982459  0.01482018  0.81849017     0.02750
C730        C  0.18287371  0.02791833  0.85913309     0.00430
C731        C  0.16309595  0.99131051  0.88879186    -0.11290
C732        C  0.13794222  0.94231801  0.87774342     0.02640
H733        H  0.13978469  0.95620570  0.77579642     0.15620
H734        H  0.17092990  0.00081332  0.92031337     0.15620
C735        C  0.12039670  0.90578118  0.90912279     0.37270
C736        C  0.18422562  0.05069163  0.78695868     0.37180
N737        N  0.10598358  0.87652681  0.93435047    -0.43070
N738        N  0.19452255  0.07847803  0.76096329    -0.43070
C739        C  0.85853898  0.03522514  0.68963887     0.00520
C740        C  0.85148912  0.00451323  0.65694678    -0.11360
C741        C  0.82878094  0.95414994  0.66267310     0.02750
C742        C  0.81331391  0.93371244  0.70186559     0.00430
C743        C  0.82748842  0.96526151  0.73492837    -0.11290
C744        C  0.84917655  0.01548946  0.72915406     0.02640
H745        H  0.85887543  0.01922059  0.62648539     0.15620
H746        H  0.81648756  0.95032543  0.76519625     0.15620
C747        C  0.85794288  0.04532063  0.76436682     0.37270
C748        C  0.81679201  0.92449492  0.62708039     0.37180
N749        N  0.86494713  0.06832070  0.79322084    -0.43070
N750        N  0.80752196  0.90228562  0.59757337    -0.42880
C751        C  0.94282213  0.79203924  0.79034807     0.00520
C752        C  0.97647870  0.81604500  0.75840983    -0.11360
C753        C  0.02693460  0.84100230  0.76506174     0.02750
C754        C  0.04439619  0.84093329  0.80388344     0.00430
C755        C  0.01112365  0.82457293  0.83654236    -0.11290
C756        C  0.96081511  0.80142552  0.83016210     0.02640
H757        H  0.96366276  0.81099535  0.72769886     0.15620
H758        H  0.02419502  0.82667521  0.86688320     0.15620
C759        C  0.92897327  0.78666705  0.86526565     0.37270
C760        C  0.05995646  0.86500622  0.73139896     0.37180
N761        N  0.90527164  0.77673581  0.89455778    -0.43070
N762        N  0.08594710  0.88525081  0.70429858    -0.43070
C763        C  0.81230489  0.84118036  0.72890596     0.00520
C764        C  0.81910873  0.83612011  0.77009271    -0.11360
C765        C  0.83723567  0.80636252  0.78226033     0.02750
C766        C  0.85648744  0.78796446  0.75314146     0.00430
C767        C  0.86238622  0.80522602  0.71326473    -0.11290
C768        C  0.83652244  0.82736935  0.70028896     0.02640
H769        H  0.80342273  0.84901854  0.79271570     0.15620
H770        H  0.87919940  0.79315366  0.69086095     0.15620
C771        C  0.82917247  0.82758332  0.65751753     0.37270
C772        C  0.82938511  0.79016606  0.82374334     0.37180
N773        N  0.82361587  0.82555952  0.95630557    -0.43070
N774        N  0.82173121  0.77700825  0.85702228    -0.43070
C775        C  0.17940458  0.88512759  0.82795596     0.00520
C776        C  0.18788671  0.86614955  0.86298754    -0.11360
C777        C  0.23340956  0.87080541  0.86957300     0.02750
C778        C  0.27151731  0.89454327  0.84040830     0.00430
C779        C  0.26134329  0.90979996  0.80393406    -0.11290
C780        C  0.21626851  0.90591815  0.79778231     0.02640
H781        H  0.15933528  0.84883819  0.88586344     0.15620
H782        H  0.28973513  0.92784836  0.78093176     0.15620
C783        C  0.20971563  0.92543516  0.76079536     0.37270
C784        C  0.24017129  0.85250700  0.90715502     0.37180
N785        N  0.20515699  0.94135997  0.73100069    -0.43070
N786        N  0.24535552  0.83778915  0.93736692    -0.43070
C787        C  0.27301657  0.07463743  0.87370556     0.00520
C788        C  0.28111458  0.05974712  0.91104943    -0.11360
C789        C  0.32094014  0.05345258  0.91641720     0.02750
C790        C  0.35373887  0.06191032  0.88367587     0.00430
C791        C  0.34800227  0.08120877  0.84751610    -0.11290
C792        C  0.30809426  0.08756897  0.84229282     0.02640
H793        H  0.25544986  0.05186486  0.93594694     0.15620
H794        H  0.37302108  0.08853131  0.82221315     0.15620
C795        C  0.30387153  0.10632325  0.80407181     0.37270
C796        C  0.32585464  0.03661242  0.95547684     0.37180
N797        N  0.30213786  0.12188276  0.77307616    -0.43070
N798        N  0.32949329  0.02304485  0.98683977    -0.43070
C799        C  0.72181264  0.07158384  0.67997864     0.00520
C800        C  0.75331371  0.09644003  0.71187040    -0.11360
C801        C  0.80036037  0.10312137  0.71259535     0.02750
C802        C  0.81551482  0.08249444  0.68201149     0.00430
C803        C  0.78577829  0.06150270  0.98190938    -0.11290
C804        C  0.74002130  0.05707970  0.98002192     0.02640
H805        H  0.74056779  0.10915856  0.73704324     0.15620
H806        H  0.79844249  0.04827609  0.95703844     0.15620
C807        C  0.71228452  0.03571996  0.94406009     0.37270
C808        C  0.83185770  0.13132507  0.74482759     0.37180
N809        N  0.69047637  0.01901842  0.91499036    -0.43070
N810        N  0.85653056  0.15485845  0.77070436    -0.43070
C811        C  0.64020301  0.89854826  0.70456331     0.00520
C812        C  0.65747473  0.89276266  0.74164671    -0.11360
C813        C  0.69793019  0.88670916  0.74321932     0.02750
C814        C  0.72187556  0.88577770  0.70710488     0.00430
C815        C  0.70321957  0.88904254  0.67003940    -0.11290
C816        C  0.66271136  0.89500293  0.66835717     0.02640
H817        H  0.64097956  0.89561921  0.76973237     0.15620
H818        H  0.72104200  0.88819214  0.64215872     0.15620
C819        C  0.64741195  0.90042200  0.62894184     0.37270
C820        C  0.71585919  0.88466706  0.78242992     0.37180
N821        N  0.63533388  0.90462666  0.93054876    -0.43070
N822        N  0.72996068  0.88315868  0.81402504    -0.43070
C823        C  0.63083701  0.70859549  0.73630887     0.00520
C824        C  0.64567912  0.72921537  0.69741571    -0.11360
C825        C  0.68988269  0.77262146  0.69086427     0.02750
C826        C  0.71984054  0.79741673  0.72377135     0.00430
C827        C  0.70334590  0.77853091  0.76288061    -0.11290
C828        C  0.65991500  0.73461930  0.76945676     0.02640
H829        H  0.62430847  0.70978936  0.67149742     0.15620
H830        H  0.72448441  0.79759566  0.78877296     0.15620
C831        C  0.64836702  0.71620906  0.81044505     0.37270
C832        C  0.70445840  0.78931482  0.64975181     0.37180
N833        N  0.63972087  0.70159055  0.84332870    -0.43070
N834        N  0.71514303  0.80187472  0.61648044    -0.43070
C835        C  0.81435234  0.69467489  0.74670061     0.00520
C836        C  0.78808564  0.69511709  0.71298475    -0.11360
C837        C  0.73846493  0.66111674  0.70905972     0.02750
C838        C  0.71339603  0.62664531  0.74016180     0.00430
C839        C  0.74003949  0.62468131  0.77234268    -0.11290
C840        C  0.79092230  0.65179304  0.77078732     0.02640
H841        H  0.80529137  0.72237367  0.68975296     0.15620
H842        H  0.72191974  0.59503296  0.79396917     0.15620
C843        C  0.80872934  0.61860111  0.76844731     0.37270
C844        C  0.71387446  0.66539761  0.67453347     0.37180
N845        N  0.81929083  0.58911783  0.76498749    -0.43070
N846        N  0.69439927  0.66896752  0.64677553    -0.43070
C847        C  0.35474357  0.25586719  0.89489955     0.00520
C848        C  0.33066409  0.24324687  0.85785505    -0.11360
C849        C  0.28913614  0.19794052  0.85227186     0.02750
C850        C  0.27164546  0.16306532  0.88359697     0.00430
C851        C  0.29777401  0.17409170  0.91959779    -0.11290
C852        C  0.33875176  0.22016682  0.92564373     0.02640
H853        H  0.34200011  0.27013371  0.83394752     0.15620
H854        H  0.28540296  0.14717608  0.94348149     0.15620
C855        C  0.36290425  0.23000684  0.96387330     0.37270
C856        C  0.26425455  0.18950523  0.81454702     0.37180
N857        N  0.38219528  0.23775649  0.99456207    -0.43070
N858        N  0.24514974  0.18421997  0.78402502    -0.43070
C859        C  0.16975464  0.25128093  0.91462577     0.00520
C860        C  0.19176948  0.27517581  0.87816460    -0.11360
C861        C  0.23730405  0.31793148  0.87756558     0.02750
C862        C  0.26271665  0.33637814  0.91403135     0.00430
C863        C  0.23915588  0.31369807  0.95069973    -0.11290
C864        C  0.19322576  0.27161195  0.95126583     0.02640
H865        H  0.17367951  0.26009506  0.84998703     0.15620
H866        H  0.25773519  0.32721056  0.97902507     0.15620
C867        C  0.17214943  0.24868122  0.98978138     0.37270
C868        C  0.25729515  0.34096935  0.83889561     0.37180
N869        N  0.15556841  0.23050263  0.02077128    -0.43070
N870        N  0.27304681  0.35951069  0.80786824    -0.43070
C871        C  0.93053142  0.63084696  0.77706329     0.00520
C872        C  0.91136432  0.63916966  0.81287339    -0.11360
C873        C  0.89827833  0.67477587  0.81455838     0.02750
C874        C  0.90549937  0.70373692  0.78014612     0.00430
C875        C  0.92459292  0.69558752  0.74443349    -0.11290
C876        C  0.93675208  0.65945940  0.74239645     0.02640
H877        H  0.90576514  0.61728997  0.83955938     0.15620
H878        H  0.93020562  0.71786119  0.71798726     0.15620
C879        C  0.95595364  0.65337292  0.70431404     0.37270
C880        C  0.87071587  0.67530248  0.84946542     0.37180
N881        N  0.97133752  0.64870159  0.00705224    -0.43070
N882        N  0.84696750  0.67352202  0.87708721    -0.43070
C883        C  0.08981140  0.70820584  0.81016030     0.00520
C884        C  0.10564087  0.73733873  0.77510095    -0.11360
C885        C  0.10733142  0.78189789  0.77385651     0.02750
C886        C  0.09250632  0.79792752  0.80809907     0.00430
C887        C  0.07974526  0.77047060  0.84385808    -0.11290
C888        C  0.07898855  0.72650760  0.84545860     0.02640
H889        H  0.11435459  0.72421396  0.74777858     0.15620
H890        H  0.07030707  0.78357788  0.87081285     0.15620
C891        C  0.06570443  0.70074127  0.88362227     0.37270
C892        C  0.12370270  0.80949057  0.73676321     0.37180
N893        N  0.05508177  0.68030560  0.91429856    -0.43070
N894        N  0.13742280  0.83035748  0.70638963    -0.43070
C895        C  0.07808910  0.33725651  0.94130743     0.00520
C896        C  0.08411294  0.32340898  0.90229125    -0.11360
C897        C  0.08576653  0.28111905  0.89590347     0.02750
C898        C  0.08175864  0.25166808  0.92908595     0.00430
C899        C  0.07876549  0.26697183  0.96830953    -0.11290
C900        C  0.07733952  0.30946651  0.97475566     0.02640
H901        H  0.08470215  0.34424590  0.87632137     0.15620
H902        H  0.07655172  0.24512977  0.99405026     0.15620
C903        C  0.07201851  0.32162152  0.01588941     0.37270
C904        C  0.08877024  0.26794879  0.85468185     0.37180
N905        N  0.06783369  0.33125674  0.71559045    -0.43070
N906        N  0.09125414  0.25898467  0.82111610    -0.43070
C907        C  0.90459117  0.16884778  0.99314500     0.00520
C908        C  0.88101493  0.17675328  0.96114322    -0.11360
C909        C  0.88533962  0.22220065  0.95532684     0.02750
C910        C  0.91321492  0.26043766  0.98218482     0.00430
C911        C  0.93440220  0.25133248  0.01528834    -0.11290
C912        C  0.93122631  0.20666151  0.02044108     0.02640
H913        H  0.86016780  0.14772583  0.94013814     0.15620
H914        H  0.95658470  0.28031640  0.03595645     0.15620
C915        C  0.95712501  0.20153189  0.05347700     0.37270
C916        C  0.86131066  0.22866046  0.92150421     0.37180
N917        N  0.97830535  0.19884388  0.08033744    -0.43070
N918        N  0.84188040  0.23369261  0.89441703    -0.43070
loop_ 
_geom_bond_atom_site_label_1 
_geom_bond_atom_site_label_2 
_geom_bond_distance 
_geom_bond_site_symmetry_2 
_ccdc_geom_bond_type 
O1            C4   1.269       .  A
O1           Cd6   2.459       .  S
C2           O11   1.265       .  A
C2            O7   1.268       .  A
C2          C298   1.482       .  S
O3            C9   1.267       .  A
O3           Cd6   2.460   1_455  S
C4           O12   1.266   1_655  A
C4           C18   1.459   1_655  S
C5          O622   1.269       .  A
C5          O620   1.267   1_455  A
C5           C17   1.460       .  S
Cd6          O13   2.416   1_655  S
Cd6          O12   2.415   1_655  S
Cd6          O11   2.407       .  S
Cd6           O7   2.477       .  S
Cd6          O10   2.457   1_655  S
Cd6           O8   2.421       .  S
O8          C311   1.267   1_655  A
C9           O13   1.265       .  A
C9          C283   1.482       .  S
O10         C311   1.269       .  A
O14          C17   1.269       .  A
O14         Cd19   2.460       .  S
C15          O24   1.264       .  A
C15          O20   1.271       .  A
C15         C271   1.486       .  S
O16          C22   1.270       .  A
O16         Cd19   2.453   1_655  S
C17          O25   1.266   1_455  A
C18          O23   1.268   1_455  A
C18          O21   1.267       .  A
Cd19         O26   2.398   1_455  S
Cd19         O25   2.419   1_455  S
Cd19         O24   2.404       .  S
Cd19         O20   2.462       .  S
Cd19         O23   2.452   1_455  S
Cd19         O21   2.417       .  S
C22          O26   1.263       .  A
C22         C259   1.482       .  S
O27          C30   1.266       .  A
O27         Cd32   2.428       .  S
C28          O37   1.268       .  A
C28          O33   1.267       .  A
C28          C48   1.462       .  S
O29          C35   1.266       .  A
O29         Cd32   2.438       .  S
C30          O38   1.266       .  A
C30         C235   1.484       .  S
C31          O36   1.266       .  A
C31          O34   1.268       .  A
C31         C349   1.460       .  S
Cd32         O39   2.447       .  S
Cd32         O38   2.470       .  S
Cd32         O37   2.453       .  S
Cd32         O33   2.439       .  S
Cd32         O36   2.434       .  S
Cd32         O34   2.455       .  S
C35          O39   1.266       .  A
C35         C250   1.486       .  S
O40          C43   1.268       .  A
O40         Cd45   2.435       .  S
C41          O50   1.266       .  A
C41          O46   1.266       .  A
C41         C211   1.487       .  S
O42          C48   1.267       .  A
O42         Cd45   2.435       .  S
C43          O51   1.267       .  A
C43         C643   1.460   1_554  S
C44          O49   1.267       .  A
C44          O47   1.265       .  A
C44         C226   1.478       .  S
Cd45         O52   2.453       .  S
Cd45         O51   2.448       .  S
Cd45         O50   2.433       .  S
Cd45         O46   2.436       .  S
Cd45         O49   2.443       .  S
Cd45         O47   2.431       .  S
C48          O52   1.269       .  A
O53          C56   1.268   1_545  A
O53         Cd58   2.463   1_545  S
C54          O59   1.268       .  A
C54         O675   1.264   1_554  A
C54         C187   1.486       .  S
O55          C61   1.267       .  A
O55         Cd58   2.467       .  S
C56          O64   1.267       .  A
C56          C70   1.463       .  S
C57          O62   1.268       .  A
C57         O366   1.266   1_565  A
C57          C69   1.464       .  S
Cd58         O65   2.444       .  S
Cd58         O64   2.439       .  S
Cd58         O59   2.470   1_565  S
Cd58         O60   2.433   1_564  S
Cd58        O675   2.419   1_564  S
Cd58        O674   2.471   1_554  S
O60         C669   1.266   1_545  A
C61          O65   1.266       .  A
C61         C199   1.488       .  S
O62        Cd364   2.471       .  S
O63         C360   1.264       .  A
O63        Cd364   2.419   1_545  S
O66          C69   1.269       .  A
O66         Cd71   2.473       .  S
C67          O76   1.265       .  A
C67          O72   1.270       .  A
C67         C166   1.490       .  S
O68          C74   1.270       .  A
O68         Cd71   2.469   1_545  S
C69          O77   1.266   1_565  A
C70          O75   1.269   1_565  A
C70          O73   1.267       .  A
Cd71         O78   2.417   1_565  S
Cd71         O77   2.429   1_565  S
Cd71         O76   2.413       .  S
Cd71         O72   2.481       .  S
Cd71         O75   2.461   1_565  S
Cd71         O73   2.434       .  S
C74          O78   1.264       .  A
C74         C178   1.486       .  S
C79          C80   1.375       .  D
C79         C139   1.505       .  S
C79         C262   1.483       .  S
C80         C154   1.510       .  S
C80         C223   1.540       .  S
C81          C82   1.367       .  D
C81         C151   1.504       .  S
C81         C214   1.503       .  S
C82         C130   1.494       .  S
C82         C202   1.500       .  S
C83          C84   1.359       .  D
C83         C115   1.489       .  S
C83         C163   1.497       .  S
C84         C142   1.496       .  S
C84         C274   1.493       .  S
C85          C86   1.356       .  D
C85         C118   1.493       .  S
C85         C175   1.492       .  S
C86         C103   1.490       .  S
C86         C238   1.495       .  S
C87         C394   1.359       .  D
C87          C91   1.492       .  S
C87         C295   1.494       .  S
C88         C699   1.359   1_554  D
C88         C127   1.496       .  S
C88         C190   1.494       .  S
C89          C90   1.358       .  D
C89          C94   1.490       .  S
C89         C286   1.496       .  S
C90         C106   1.489       .  S
C90         C247   1.491       .  S
C91          C92   1.404       .  A
C91          C96   1.409       .  A
C92          C93   1.399       .  A
C92          H97   1.084       .  S
C93          C94   1.408   1_655  A
C93         C100   1.442       .  S
C94          C95   1.408       .  A
C95          C96   1.407   1_455  A
C95          H98   1.083       .  S
C96          C99   1.441       .  S
C99         N101   1.157       .  T
C100        N102   1.157       .  T
C103        C104   1.400       .  A
C103        C108   1.411       .  A
C104        C105   1.403       .  A
C104        H109   1.081       .  S
C105        C106   1.413       .  A
C105        C112   1.441       .  S
C106        C107   1.403       .  A
C107        C108   1.402       .  A
C107        H110   1.082       .  S
C108        C111   1.443       .  S
C111        N113   1.157       .  T
C112        N114   1.157       .  T
C115        C116   1.400       .  A
C115        C120   1.412       .  A
C116        C117   1.403   1_565  A
C116        H121   1.083       .  S
C117        C118   1.413       .  A
C117        C124   1.440       .  S
C118        C119   1.403   1_545  A
C119        C120   1.402       .  A
C119        H122   1.083   1_565  S
C120        C123   1.443       .  S
C123        N125   1.157       .  T
C124        N126   1.157       .  T
C127        C128   1.401   1_554  A
C127        C132   1.413       .  A
C128        C129   1.404   1_545  A
C128        H133   1.084       .  S
C129        C130   1.416   1_556  A
C129        C136   1.440       .  S
C130        C131   1.403       .  A
C131        C132   1.403   1_565  A
C131        H134   1.083       .  S
C132        C135   1.442       .  S
C135        N137   1.157       .  T
C136        N138   1.157       .  T
C139        C140   1.407       .  A
C139        C144   1.417       .  A
C140        C141   1.408   1_655  A
C140        H145   1.084       .  S
C141        C142   1.411       .  A
C141        C148   1.441       .  S
C142        C143   1.400       .  A
C143        C144   1.404   1_455  A
C143        H146   1.084       .  S
C144        C147   1.439       .  S
C147        N149   1.157       .  T
C148        N150   1.157       .  T
C151        C152   1.407       .  A
C151        C156   1.415       .  A
C152        C153   1.407       .  A
C152        H157   1.083       .  S
C153        C154   1.411       .  A
C153        C160   1.441       .  S
C154        C155   1.404       .  A
C155        C156   1.407       .  A
C155        H158   1.085       .  S
C156        C159   1.440   1_554  S
C159        N773   1.157       .  T
C160        N162   1.157       .  T
N161        C465   1.157       .  T
C163        C164   1.405       .  A
C163        C168   1.408       .  A
C164        C165   1.404       .  A
C164        H169   1.082       .  S
C165        C166   1.415       .  A
C165        C172   1.443       .  S
C166        C167   1.408       .  A
C167        C168   1.398       .  A
C167        H170   1.084       .  S
C168        C171   1.443       .  S
C171        N173   1.157       .  T
C172        N174   1.157       .  T
C175        C176   1.402       .  A
C175        C180   1.409       .  A
C176        C177   1.398       .  A
C176        H181   1.084       .  S
C177        C178   1.417       .  A
C177        C184   1.444       .  S
C178        C179   1.406       .  A
C179        C180   1.402       .  A
C179        H182   1.084       .  S
C180        C183   1.440       .  S
C183        N185   1.157       .  T
C184        N186   1.157       .  T
C187        C188   1.407       .  A
C187        C804   1.417   1_554  A
C188        C189   1.404       .  A
C188        H193   1.084       .  S
C189        C190   1.411       .  A
C189        C196   1.440       .  S
C190        C803   1.401   1_554  A
C191        C192   1.395       .  A
C191        C496   1.401       .  A
C191        H194   1.085       .  S
C192        C493   1.417       .  A
C192        C195   1.445       .  S
C195        N197   1.157       .  T
C196        N198   1.157       .  T
C199        C200   1.406       .  A
C199        C204   1.417       .  A
C200        C201   1.401       .  A
C200        H205   1.084       .  S
C201        C202   1.413       .  A
C201        C208   1.444       .  S
C202        C203   1.401       .  A
C203        C204   1.401       .  A
C203        H206   1.081   1_554  S
C204        C207   1.443   1_554  S
C207        N821   1.157       .  T
C208        N210   1.157       .  T
N209        C513   1.157       .  T
C211        C212   1.407       .  A
C211        C216   1.416       .  A
C212        C213   1.401       .  A
C212        H217   1.084       .  S
C213        C214   1.411       .  A
C213        C220   1.442   1_554  S
C214        C215   1.404       .  A
C215        C216   1.397       .  A
C215        H218   1.078       .  S
C216        C219   1.445       .  S
C219        N221   1.157       .  T
C220        N222   1.157       .  T
C223        C224   1.413       .  A
C223        C228   1.422       .  A
C224        C225   1.400       .  A
C224        H229   1.075       .  S
C225        C226   1.413       .  A
C225        C232   1.445       .  S
C226        C227   1.397       .  A
C227        C228   1.398       .  A
C227        H230   1.086       .  S
C228        C231   1.439       .  S
C231        N233   1.158       .  T
C232        N234   1.157   1_554  T
C235        C236   1.405       .  A
C235        C240   1.414       .  A
C236        C237   1.395       .  A
C236        H241   1.084       .  S
C237        C238   1.409       .  A
C237        C244   1.442       .  S
C238        C239   1.406       .  A
C239        C240   1.405       .  A
C239        H242   1.082       .  S
C240        C243   1.443       .  S
C243        N245   1.157       .  T
C244        N246   1.157       .  T
C247        C248   1.400       .  A
C247        C252   1.410       .  A
C248        C249   1.400       .  A
C248        H253   1.082       .  S
C249        C250   1.417       .  A
C249        C256   1.444       .  S
C250        C251   1.407       .  A
C251        C252   1.398       .  A
C251        H254   1.084       .  S
C252        C255   1.444       .  S
C255        N257   1.157       .  T
C256        N258   1.157       .  T
C259        C260   1.407       .  A
C259        C264   1.418       .  A
C260        C261   1.400       .  A
C260        H265   1.084       .  S
C261        C262   1.411       .  A
C261        C268   1.442       .  S
C262        C263   1.401       .  A
C263        C264   1.396       .  A
C263        H266   1.085       .  S
C264        C267   1.445       .  S
C267        N881   1.157       .  T
C268        N270   1.157       .  T
N269        C573   1.157       .  T
C271        C272   1.406       .  A
C271        C276   1.417       .  A
C272        C273   1.402       .  A
C272        H277   1.084       .  S
C273        C274   1.410       .  A
C273        C280   1.440       .  S
C274        C275   1.402       .  A
C275        C276   1.398       .  A
C275        H278   1.084       .  S
C276        C279   1.445       .  S
C279        N281   1.157       .  T
C280        N282   1.157       .  T
C283        C284   1.404       .  A
C283        C288   1.416       .  A
C284        C285   1.397       .  A
C284        H289   1.085       .  S
C285        C286   1.412       .  A
C285        C292   1.441       .  S
C286        C287   1.403       .  A
C287        C288   1.400       .  A
C287        H290   1.083       .  S
C288        C291   1.444       .  S
C291        N599   1.157       .  T
C292        N294   1.157       .  T
N293        C903   1.157       .  T
C295        C296   1.407       .  A
C295        C300   1.407       .  A
C296        C297   1.405       .  A
C296        H301   1.084       .  S
C297        C298   1.413       .  A
C297        C304   1.443       .  S
C298        C299   1.406       .  A
C299        C300   1.394       .  A
C299        H302   1.085       .  S
C300        C303   1.443       .  S
C303        N305   1.157       .  T
C304        N306   1.157       .  T
O307        C310   1.269       .  A
O307       Cd312   2.459       .  S
C308        O317   1.265       .  A
C308        O313   1.268       .  A
C308        C604   1.482       .  S
O309        C315   1.267       .  A
O309       Cd312   2.460   1_455  S
C310        O318   1.266   1_655  A
C310        C324   1.459   1_655  S
C311        C323   1.460       .  S
Cd312       O319   2.416   1_655  S
Cd312       O318   2.415   1_655  S
Cd312       O317   2.407       .  S
Cd312       O313   2.477       .  S
Cd312       O316   2.457   1_655  S
Cd312       O314   2.421       .  S
O314        C617   1.267   1_655  A
C315        O319   1.265       .  A
C315        C589   1.482       .  S
O316        C617   1.269       .  A
O320        C323   1.269       .  A
O320       Cd325   2.460       .  S
C321        O330   1.264       .  A
C321        O326   1.271       .  A
C321        C577   1.486       .  S
O322        C328   1.270       .  A
O322       Cd325   2.453   1_655  S
C323        O331   1.266   1_455  A
C324        O329   1.268   1_455  A
C324        O327   1.267       .  A
Cd325       O332   2.398   1_455  S
Cd325       O331   2.419   1_455  S
Cd325       O330   2.404       .  S
Cd325       O326   2.462       .  S
Cd325       O329   2.452   1_455  S
Cd325       O327   2.417       .  S
C328        O332   1.263       .  A
C328        C565   1.482       .  S
O333        C336   1.266       .  A
O333       Cd338   2.428       .  S
C334        O343   1.268       .  A
C334        O339   1.267       .  A
C334        C354   1.462       .  S
O335        C341   1.266       .  A
O335       Cd338   2.438       .  S
C336        O344   1.266       .  A
C336        C541   1.484       .  S
C337        O342   1.266       .  A
C337        O340   1.268       .  A
C337        C655   1.460       .  S
Cd338       O345   2.447       .  S
Cd338       O344   2.470       .  S
Cd338       O343   2.453       .  S
Cd338       O339   2.439       .  S
Cd338       O342   2.434       .  S
Cd338       O340   2.455       .  S
C341        O345   1.266       .  A
C341        C556   1.486       .  S
O346        C349   1.268       .  A
O346       Cd351   2.435       .  S
C347        O356   1.266       .  A
C347        O352   1.266       .  A
C347        C517   1.487       .  S
O348        C354   1.267       .  A
O348       Cd351   2.435       .  S
C349        O357   1.267       .  A
C350        O355   1.267       .  A
C350        O353   1.265       .  A
C350        C532   1.478       .  S
Cd351       O358   2.453       .  S
Cd351       O357   2.448       .  S
Cd351       O356   2.433       .  S
Cd351       O352   2.436       .  S
Cd351       O355   2.443       .  S
Cd351       O353   2.431       .  S
C354        O358   1.269       .  A
O359        C362   1.268   1_545  A
O359       Cd364   2.463   1_545  S
C360        O365   1.268       .  A
C360        C493   1.486       .  S
O361        C367   1.267       .  A
O361       Cd364   2.467       .  S
C362        O370   1.267       .  A
C362        C376   1.463       .  S
C363        O368   1.268       .  A
C363        O672   1.266   1_565  A
C363        C375   1.464       .  S
Cd364       O371   2.444       .  S
Cd364       O370   2.439       .  S
Cd364       O365   2.470   1_565  S
Cd364       O366   2.433   1_565  S
C367        O371   1.266       .  A
C367        C505   1.488       .  S
O368       Cd670   2.471       .  S
O369        C666   1.264       .  A
O369       Cd670   2.419   1_545  S
O372        C375   1.269       .  A
O372       Cd377   2.473       .  S
C373        O382   1.265       .  A
C373        O378   1.270       .  A
C373        C472   1.490       .  S
O374        C380   1.270       .  A
O374       Cd377   2.469   1_545  S
C375        O383   1.266   1_565  A
C376        O381   1.269   1_565  A
C376        O379   1.267       .  A
Cd377       O384   2.417   1_565  S
Cd377       O383   2.429   1_565  S
Cd377       O382   2.413       .  S
Cd377       O378   2.481       .  S
Cd377       O381   2.461   1_565  S
Cd377       O379   2.434       .  S
C380        O384   1.264       .  A
C380        C484   1.486       .  S
C385        C386   1.375       .  D
C385        C445   1.505       .  S
C385        C568   1.483       .  S
C386        C460   1.510       .  S
C386        C529   1.540       .  S
C387        C388   1.367       .  D
C387        C457   1.504       .  S
C387        C520   1.503       .  S
C388        C436   1.494       .  S
C388        C508   1.500       .  S
C389        C390   1.359       .  D
C389        C421   1.489       .  S
C389        C469   1.497       .  S
C390        C448   1.496       .  S
C390        C580   1.493       .  S
C391        C392   1.356       .  D
C391        C424   1.493       .  S
C391        C481   1.492       .  S
C392        C409   1.490       .  S
C392        C544   1.495       .  S
C393        C700   1.359       .  D
C393        C397   1.492       .  S
C393        C601   1.494       .  S
C394        C433   1.496       .  S
C394        C496   1.494       .  S
C395        C396   1.358       .  D
C395        C400   1.490       .  S
C395        C592   1.496       .  S
C396        C412   1.489       .  S
C396        C553   1.491       .  S
C397        C398   1.404       .  A
C397        C402   1.409       .  A
C398        C399   1.399       .  A
C398        H403   1.084       .  S
C399        C400   1.408   1_655  A
C399        C406   1.442       .  S
C400        C401   1.408       .  A
C401        C402   1.407   1_455  A
C401        H404   1.083       .  S
C402        C405   1.441       .  S
C405        N407   1.157       .  T
C406        N408   1.157       .  T
C409        C410   1.400       .  A
C409        C414   1.411       .  A
C410        C411   1.403       .  A
C410        H415   1.081       .  S
C411        C412   1.413       .  A
C411        C418   1.441       .  S
C412        C413   1.403       .  A
C413        C414   1.402       .  A
C413        H416   1.082       .  S
C414        C417   1.443       .  S
C417        N419   1.157       .  T
C418        N420   1.157       .  T
C421        C422   1.400       .  A
C421        C426   1.412       .  A
C422        C423   1.403   1_565  A
C422        H427   1.083       .  S
C423        C424   1.413       .  A
C423        C430   1.440       .  S
C424        C425   1.403   1_545  A
C425        C426   1.402       .  A
C425        H428   1.083   1_565  S
C426        C429   1.443       .  S
C429        N431   1.157       .  T
C430        N432   1.157       .  T
C433        C434   1.401       .  A
C433        C438   1.413       .  A
C434        C435   1.404   1_545  A
C434        H439   1.084       .  S
C435        C436   1.416       .  A
C435        C442   1.440       .  S
C436        C437   1.403       .  A
C437        C438   1.403   1_565  A
C437        H440   1.083       .  S
C438        C441   1.442       .  S
C441        N443   1.157       .  T
C442        N444   1.157       .  T
C445        C446   1.407       .  A
C445        C450   1.417       .  A
C446        C447   1.408   1_655  A
C446        H451   1.084       .  S
C447        C448   1.411       .  A
C447        C454   1.441       .  S
C448        C449   1.400       .  A
C449        C450   1.404   1_455  A
C449        H452   1.084       .  S
C450        C453   1.439       .  S
C453        N455   1.157       .  T
C454        N456   1.157       .  T
C457        C458   1.407       .  A
C457        C462   1.415       .  A
C458        C459   1.407       .  A
C458        H463   1.083       .  S
C459        C460   1.411       .  A
C459        C466   1.441       .  S
C460        C461   1.404       .  A
C461        C462   1.407       .  A
C461        H464   1.085       .  S
C462        C465   1.440       .  S
C466        N468   1.157       .  T
N467        C771   1.157       .  T
C469        C470   1.405       .  A
C469        C474   1.408       .  A
C470        C471   1.404       .  A
C470        H475   1.082       .  S
C471        C472   1.415       .  A
C471        C478   1.443       .  S
C472        C473   1.408       .  A
C473        C474   1.398       .  A
C473        H476   1.084       .  S
C474        C477   1.443       .  S
C477        N479   1.157       .  T
C478        N480   1.157       .  T
C481        C482   1.402       .  A
C481        C486   1.409       .  A
C482        C483   1.398       .  A
C482        H487   1.084       .  S
C483        C484   1.417       .  A
C483        C490   1.444       .  S
C484        C485   1.406       .  A
C485        C486   1.402       .  A
C485        H488   1.084       .  S
C486        C489   1.440       .  S
C489        N491   1.157       .  T
C490        N492   1.157       .  T
C493        C494   1.407       .  A
C494        C495   1.404       .  A
C494        H499   1.084       .  S
C495        C496   1.411       .  A
C495        C502   1.440       .  S
C497        C802   1.401       .  A
C497        C498   1.395       .  A
C497        H500   1.085       .  S
C498        C799   1.417       .  A
C498        C501   1.445       .  S
C501        N503   1.157       .  T
C502        N504   1.157       .  T
C505        C506   1.406       .  A
C505        C510   1.417       .  A
C506        C507   1.401       .  A
C506        H511   1.084       .  S
C507        C508   1.413       .  A
C507        C514   1.444       .  S
C508        C509   1.401       .  A
C509        C510   1.401       .  A
C509        H512   1.081       .  S
C510        C513   1.443       .  S
C514        N516   1.157       .  T
N515        C819   1.157       .  T
C517        C518   1.407       .  A
C517        C522   1.416       .  A
C518        C519   1.401       .  A
C518        H523   1.084       .  S
C519        C520   1.411       .  A
C519        C526   1.442       .  S
C520        C521   1.404       .  A
C521        C522   1.397       .  A
C521        H524   1.078       .  S
C522        C525   1.445       .  S
C525        N527   1.157       .  T
C526        N528   1.157       .  T
C529        C530   1.413       .  A
C529        C534   1.422       .  A
C530        C531   1.400       .  A
C530        H535   1.075       .  S
C531        C532   1.413       .  A
C531        C538   1.445       .  S
C532        C533   1.397       .  A
C533        C534   1.398       .  A
C533        H536   1.086       .  S
C534        C537   1.439       .  S
C537        N539   1.158       .  T
C538        N540   1.157       .  T
C541        C542   1.405       .  A
C541        C546   1.414       .  A
C542        C543   1.395       .  A
C542        H547   1.084       .  S
C543        C544   1.409       .  A
C543        C550   1.442       .  S
C544        C545   1.406       .  A
C545        C546   1.405       .  A
C545        H548   1.082       .  S
C546        C549   1.443       .  S
C549        N551   1.157       .  T
C550        N552   1.157       .  T
C553        C554   1.400       .  A
C553        C558   1.410       .  A
C554        C555   1.400       .  A
C554        H559   1.082       .  S
C555        C556   1.417       .  A
C555        C562   1.444       .  S
C556        C557   1.407       .  A
C557        C558   1.398       .  A
C557        H560   1.084       .  S
C558        C561   1.444       .  S
C561        N563   1.157       .  T
C562        N564   1.157       .  T
C565        C566   1.407       .  A
C565        C570   1.418       .  A
C566        C567   1.400       .  A
C566        H571   1.084       .  S
C567        C568   1.411       .  A
C567        C574   1.442       .  S
C568        C569   1.401       .  A
C569        C570   1.396       .  A
C569        H572   1.085       .  S
C570        C573   1.445       .  S
C574        N576   1.157       .  T
N575        C879   1.157       .  T
C577        C578   1.406       .  A
C577        C582   1.417       .  A
C578        C579   1.402       .  A
C578        H583   1.084       .  S
C579        C580   1.410       .  A
C579        C586   1.440       .  S
C580        C581   1.402       .  A
C581        C582   1.398       .  A
C581        H584   1.084       .  S
C582        C585   1.445       .  S
C585        N587   1.157       .  T
C586        N588   1.157       .  T
C589        C590   1.404       .  A
C589        C594   1.416       .  A
C590        C591   1.397       .  A
C590        H595   1.085       .  S
C591        C592   1.412       .  A
C591        C598   1.441       .  S
C592        C593   1.403       .  A
C593        C594   1.400       .  A
C593        H596   1.083       .  S
C594        C597   1.444       .  S
C597        N905   1.157       .  T
C598        N600   1.157       .  T
C601        C602   1.407       .  A
C601        C606   1.407       .  A
C602        C603   1.405       .  A
C602        H607   1.084       .  S
C603        C604   1.413       .  A
C603        C610   1.443       .  S
C604        C605   1.406       .  A
C605        C606   1.394       .  A
C605        H608   1.085       .  S
C606        C609   1.443       .  S
C609        N611   1.157       .  T
C610        N612   1.157       .  T
O613        C616   1.269       .  A
O613       Cd618   2.459       .  S
C614        O623   1.265   1_556  A
C614        O619   1.268       .  A
C614        C910   1.482       .  S
O615        C621   1.267       .  A
O615       Cd618   2.460   1_455  S
C616        O624   1.266   1_655  A
C616        C630   1.459   1_655  S
C617        C629   1.460       .  S
Cd618       O625   2.416   1_655  S
Cd618       O624   2.415   1_655  S
Cd618       O623   2.407   1_556  S
Cd618       O619   2.477       .  S
Cd618       O622   2.457   1_656  S
Cd618       O620   2.421   1_556  S
C621        O625   1.265       .  A
C621        C895   1.482       .  S
O626        C629   1.269       .  A
O626       Cd631   2.460       .  S
C627        O636   1.264       .  A
C627        O632   1.271       .  A
C627        C883   1.486       .  S
O628        C634   1.270       .  A
O628       Cd631   2.453   1_655  S
C629        O637   1.266   1_455  A
C630        O635   1.268   1_455  A
C630        O633   1.267       .  A
Cd631       O638   2.398   1_455  S
Cd631       O637   2.419   1_455  S
Cd631       O636   2.404       .  S
Cd631       O632   2.462       .  S
Cd631       O635   2.452   1_455  S
Cd631       O633   2.417       .  S
C634        O638   1.263       .  A
C634        C871   1.482       .  S
O639        C642   1.266       .  A
O639       Cd644   2.428       .  S
C640        O649   1.268       .  A
C640        O645   1.267       .  A
C640        C660   1.462       .  S
O641        C647   1.266       .  A
O641       Cd644   2.438       .  S
C642        O650   1.266       .  A
C642        C847   1.484       .  S
C643        O648   1.266       .  A
C643        O646   1.268       .  A
Cd644       O651   2.447       .  S
Cd644       O650   2.470       .  S
Cd644       O649   2.453       .  S
Cd644       O645   2.439       .  S
Cd644       O648   2.434       .  S
Cd644       O646   2.455       .  S
C647        O651   1.266       .  A
C647        C862   1.486       .  S
O652        C655   1.268       .  A
O652       Cd657   2.435       .  S
C653        O662   1.266       .  A
C653        O658   1.266       .  A
C653        C823   1.487       .  S
O654        C660   1.267       .  A
O654       Cd657   2.435       .  S
C655        O663   1.267       .  A
C656        O661   1.267       .  A
C656        O659   1.265       .  A
C656        C838   1.478       .  S
Cd657       O664   2.453       .  S
Cd657       O663   2.448       .  S
Cd657       O662   2.433       .  S
Cd657       O658   2.436       .  S
Cd657       O661   2.443       .  S
Cd657       O659   2.431       .  S
C660        O664   1.269       .  A
O665        C668   1.268   1_545  A
O665       Cd670   2.463   1_545  S
C666        O671   1.268       .  A
C666        C799   1.486       .  S
O667        C673   1.267       .  A
O667       Cd670   2.467       .  S
C668        O676   1.267       .  A
C668        C682   1.463       .  S
C669        O674   1.268       .  A
C669        C681   1.464       .  S
Cd670       O677   2.444       .  S
Cd670       O676   2.439       .  S
Cd670       O671   2.470   1_565  S
Cd670       O672   2.433   1_565  S
C673        O677   1.266       .  A
C673        C811   1.488       .  S
O678        C681   1.269       .  A
O678       Cd683   2.473       .  S
C679        O688   1.265       .  A
C679        O684   1.270       .  A
C679        C778   1.490       .  S
O680        C686   1.270       .  A
O680       Cd683   2.469   1_545  S
C681        O689   1.266   1_565  A
C682        O687   1.269   1_565  A
C682        O685   1.267       .  A
Cd683       O690   2.417   1_565  S
Cd683       O689   2.429   1_565  S
Cd683       O688   2.413       .  S
Cd683       O684   2.481       .  S
Cd683       O687   2.461   1_565  S
Cd683       O685   2.434       .  S
C686        O690   1.264       .  A
C686        C790   1.486       .  S
C691        C692   1.375       .  D
C691        C751   1.505       .  S
C691        C874   1.483       .  S
C692        C766   1.510       .  S
C692        C835   1.540       .  S
C693        C694   1.367       .  D
C693        C763   1.504       .  S
C693        C826   1.503       .  S
C694        C742   1.494       .  S
C694        C814   1.500       .  S
C695        C696   1.359       .  D
C695        C727   1.489       .  S
C695        C775   1.497       .  S
C696        C754   1.496       .  S
C696        C886   1.493       .  S
C697        C698   1.356       .  D
C697        C730   1.493       .  S
C697        C787   1.492       .  S
C698        C715   1.490       .  S
C698        C850   1.495       .  S
C699        C703   1.492       .  S
C699        C907   1.494       .  S
C700        C739   1.496       .  S
C700        C802   1.494       .  S
C701        C702   1.358       .  D
C701        C706   1.490       .  S
C701        C898   1.496       .  S
C702        C718   1.489       .  S
C702        C859   1.491       .  S
C703        C704   1.404       .  A
C703        C708   1.409       .  A
C704        C705   1.399       .  A
C704        H709   1.084       .  S
C705        C706   1.408   1_655  A
C705        C712   1.442       .  S
C706        C707   1.408       .  A
C707        C708   1.407   1_455  A
C707        H710   1.083       .  S
C708        C711   1.441   1_556  S
C711        N713   1.157       .  T
C712        N714   1.157       .  T
C715        C716   1.400       .  A
C715        C720   1.411       .  A
C716        C717   1.403       .  A
C716        H721   1.081       .  S
C717        C718   1.413       .  A
C717        C724   1.441       .  S
C718        C719   1.403       .  A
C719        C720   1.402       .  A
C719        H722   1.082       .  S
C720        C723   1.443       .  S
C723        N725   1.157       .  T
C724        N726   1.157       .  T
C727        C728   1.400       .  A
C727        C732   1.412       .  A
C728        C729   1.403   1_565  A
C728        H733   1.083       .  S
C729        C730   1.413       .  A
C729        C736   1.440       .  S
C730        C731   1.403   1_545  A
C731        C732   1.402       .  A
C731        H734   1.083   1_565  S
C732        C735   1.443       .  S
C735        N737   1.157       .  T
C736        N738   1.157       .  T
C739        C740   1.401       .  A
C739        C744   1.413       .  A
C740        C741   1.404   1_545  A
C740        H745   1.084       .  S
C741        C742   1.416       .  A
C741        C748   1.440       .  S
C742        C743   1.403       .  A
C743        C744   1.403   1_565  A
C743        H746   1.083       .  S
C744        C747   1.442       .  S
C747        N749   1.157       .  T
C748        N750   1.157       .  T
C751        C752   1.407       .  A
C751        C756   1.417       .  A
C752        C753   1.408   1_655  A
C752        H757   1.084       .  S
C753        C754   1.411       .  A
C753        C760   1.441       .  S
C754        C755   1.400       .  A
C755        C756   1.404   1_455  A
C755        H758   1.084       .  S
C756        C759   1.439       .  S
C759        N761   1.157       .  T
C760        N762   1.157       .  T
C763        C764   1.407       .  A
C763        C768   1.415       .  A
C764        C765   1.407       .  A
C764        H769   1.083       .  S
C765        C766   1.411       .  A
C765        C772   1.441       .  S
C766        C767   1.404       .  A
C767        C768   1.407       .  A
C767        H770   1.085       .  S
C768        C771   1.440       .  S
C772        N774   1.157       .  T
C775        C776   1.405       .  A
C775        C780   1.408       .  A
C776        C777   1.404       .  A
C776        H781   1.082       .  S
C777        C778   1.415       .  A
C777        C784   1.443       .  S
C778        C779   1.408       .  A
C779        C780   1.398       .  A
C779        H782   1.084       .  S
C780        C783   1.443       .  S
C783        N785   1.157       .  T
C784        N786   1.157       .  T
C787        C788   1.402       .  A
C787        C792   1.409       .  A
C788        C789   1.398       .  A
C788        H793   1.084       .  S
C789        C790   1.417       .  A
C789        C796   1.444       .  S
C790        C791   1.406       .  A
C791        C792   1.402       .  A
C791        H794   1.084       .  S
C792        C795   1.440       .  S
C795        N797   1.157       .  T
C796        N798   1.157       .  T
C799        C800   1.407       .  A
C800        C801   1.404       .  A
C800        H805   1.084       .  S
C801        C802   1.411       .  A
C801        C808   1.440       .  S
C803        C804   1.395       .  A
C803        H806   1.085       .  S
C804        C807   1.445       .  S
C807        N809   1.157       .  T
C808        N810   1.157       .  T
C811        C812   1.406       .  A
C811        C816   1.417       .  A
C812        C813   1.401       .  A
C812        H817   1.084       .  S
C813        C814   1.413       .  A
C813        C820   1.444       .  S
C814        C815   1.401       .  A
C815        C816   1.401       .  A
C815        H818   1.081       .  S
C816        C819   1.443       .  S
C820        N822   1.157       .  T
C823        C824   1.407       .  A
C823        C828   1.416       .  A
C824        C825   1.401       .  A
C824        H829   1.084       .  S
C825        C826   1.411       .  A
C825        C832   1.442       .  S
C826        C827   1.404       .  A
C827        C828   1.397       .  A
C827        H830   1.078       .  S
C828        C831   1.445       .  S
C831        N833   1.157       .  T
C832        N834   1.157       .  T
C835        C836   1.413       .  A
C835        C840   1.422       .  A
C836        C837   1.400       .  A
C836        H841   1.075       .  S
C837        C838   1.413       .  A
C837        C844   1.445       .  S
C838        C839   1.397       .  A
C839        C840   1.398       .  A
C839        H842   1.086       .  S
C840        C843   1.439       .  S
C843        N845   1.158       .  T
C844        N846   1.157       .  T
C847        C848   1.405       .  A
C847        C852   1.414       .  A
C848        C849   1.395       .  A
C848        H853   1.084       .  S
C849        C850   1.409       .  A
C849        C856   1.442       .  S
C850        C851   1.406       .  A
C851        C852   1.405       .  A
C851        H854   1.082       .  S
C852        C855   1.443       .  S
C855        N857   1.157       .  T
C856        N858   1.157       .  T
C859        C860   1.400       .  A
C859        C864   1.410       .  A
C860        C861   1.400       .  A
C860        H865   1.082       .  S
C861        C862   1.417       .  A
C861        C868   1.444       .  S
C862        C863   1.407       .  A
C863        C864   1.398       .  A
C863        H866   1.084       .  S
C864        C867   1.444       .  S
C867        N869   1.157   1_556  T
C868        N870   1.157       .  T
C871        C872   1.407       .  A
C871        C876   1.418       .  A
C872        C873   1.400       .  A
C872        H877   1.084       .  S
C873        C874   1.411       .  A
C873        C880   1.442       .  S
C874        C875   1.401       .  A
C875        C876   1.396       .  A
C875        H878   1.085       .  S
C876        C879   1.445       .  S
C880        N882   1.157       .  T
C883        C884   1.406       .  A
C883        C888   1.417       .  A
C884        C885   1.402       .  A
C884        H889   1.084       .  S
C885        C886   1.410       .  A
C885        C892   1.440       .  S
C886        C887   1.402       .  A
C887        C888   1.398       .  A
C887        H890   1.084       .  S
C888        C891   1.445       .  S
C891        N893   1.157       .  T
C892        N894   1.157       .  T
C895        C896   1.404       .  A
C895        C900   1.416       .  A
C896        C897   1.397       .  A
C896        H901   1.085       .  S
C897        C898   1.412       .  A
C897        C904   1.441       .  S
C898        C899   1.403       .  A
C899        C900   1.400       .  A
C899        H902   1.083       .  S
C900        C903   1.444   1_556  S
C904        N906   1.157       .  T
C907        C908   1.407       .  A
C907        C912   1.407   1_556  A
C908        C909   1.405       .  A
C908        H913   1.084       .  S
C909        C910   1.413       .  A
C909        C916   1.443       .  S
C910        C911   1.406   1_556  A
C911        C912   1.394       .  A
C911        H914   1.085       .  S
C912        C915   1.443       .  S
C915        N917   1.157       .  T
C916        N918   1.157       .  T
