geometry optimzed in LAMMPS
_audit_creation_date              2020-11-30 
_audit_creation_method            'lammps2cif' 
_symmetry_space_group_name_H-M    'P1' 
_symmetry_Int_Tables_number       1 
_symmetry_cell_setting            triclinic 
loop_ 
_symmetry_equiv_pos_as_xyz 
  x,y,z 
_cell_length_a                    43.11680461593269 
_cell_length_b                    43.21974668966458 
_cell_length_c                    43.11991754849121 
_cell_angle_alpha                 89.84939455053141 
_cell_angle_beta                  89.65164760552476 
_cell_angle_gamma                 90.00194508104708 
loop_ 
_atom_site_label 
_atom_site_type_symbol 
_atom_site_fract_x 
_atom_site_fract_y 
_atom_site_fract_z 
_atom_site_charge 
C1          C  0.76962761  0.73410996  0.77860535     0.03570
C2          C  0.78746965  0.74248890  0.75266052    -0.12580
C3          C  0.77833515  0.76735062  0.73385756     0.01070
C4          C  0.75156273  0.78411286  0.74132504    -0.11100
C5          C  0.73389866  0.77615157  0.76757012     0.03570
C6          C  0.74307612  0.75129291  0.78631463    -0.10520
H7          H  0.80771730  0.72894347  0.74642847     0.09160
H8          H  0.74410935  0.80286716  0.72638072     0.06690
H9          H  0.72901594  0.74466340  0.80616648     0.06540
C10         C  0.27800832  0.76361170  0.29724889     0.03570
C11         C  0.28500055  0.78966962  0.27904144    -0.12580
C12         C  0.26639748  0.79737948  0.25374458     0.01070
C13         C  0.24116895  0.77854365  0.24602792    -0.11100
C14         C  0.23446379  0.75194770  0.26349434     0.03570
C15         C  0.25273801  0.74479194  0.28944058    -0.10520
H16         H  0.30441284  0.80438067  0.28504295     0.09160
H17         H  0.22687269  0.78453535  0.22630763     0.06690
H18         H  0.24741529  0.72458463  0.30342641     0.06540
C19         C  0.74994988  0.76648633  0.29318427     0.03570
C20         C  0.77799836  0.78307250  0.28973742    -0.12580
C21         C  0.79724564  0.77865038  0.26366474     0.01070
C22         C  0.79058497  0.75499503  0.24269718    -0.11100
C23         C  0.76351011  0.73760268  0.24621863     0.03570
C24         C  0.74232508  0.74512373  0.26969560    -0.10520
H25         H  0.78521449  0.79978210  0.30685406     0.09160
H26         H  0.80627985  0.75029345  0.22355542     0.06690
H27         H  0.72008614  0.73369360  0.26931362     0.06540
C28         C  0.28112696  0.26704942  0.23758356     0.03570
C29         C  0.25537126  0.28576341  0.24401095    -0.12580
C30         C  0.23647318  0.27974032  0.27001318     0.01070
C31         C  0.24390285  0.25508337  0.28987456    -0.11100
C32         C  0.26949243  0.23603168  0.28344713     0.03570
C33         C  0.28819153  0.24224296  0.25741510    -0.10520
H34         H  0.24967563  0.30461459  0.22842431     0.09160
H35         H  0.22939033  0.25030680  0.30993383     0.06690
H36         H  0.30787634  0.22748322  0.25228048     0.06540
C37         C  0.79399372  0.25124029  0.26624990     0.03570
C38         C  0.78726861  0.27820803  0.28307142    -0.12580
C39         C  0.76225849  0.29715829  0.27452544     0.01070
C40         C  0.74394730  0.28897244  0.24908870    -0.11100
C41         C  0.75105954  0.26251620  0.23169340     0.03570
C42         C  0.77597100  0.24368959  0.24033118    -0.10520
H43         H  0.80126924  0.28428687  0.30294004     0.09160
H44         H  0.72456404  0.30348841  0.24248486     0.06690
H45         H  0.78153412  0.22337082  0.22670225     0.06540
C46         C  0.73874021  0.24496996  0.75818945     0.03570
C47         C  0.74388356  0.27109883  0.73966816    -0.12580
C48         C  0.76474369  0.29436434  0.74906504     0.01070
C49         C  0.78258744  0.28910923  0.77578493    -0.11100
C50         C  0.78039904  0.26105916  0.79225640     0.03570
C51         C  0.75753690  0.23959347  0.78396769    -0.10520
H52         H  0.73030938  0.27380500  0.71882170     0.09160
H53         H  0.79816933  0.30683351  0.78410194     0.06690
H54         H  0.75407029  0.21881188  0.79766752     0.06540
C55         C  0.26137700  0.79338731  0.77813717     0.03570
C56         C  0.24312030  0.78768377  0.75203727    -0.12580
C57         C  0.24845051  0.76157159  0.73329479     0.01070
C58         C  0.27328950  0.74174665  0.74062463    -0.11100
C59         C  0.29244235  0.74779635  0.76629301     0.03570
C60         C  0.28620702  0.77366000  0.78487402    -0.10520
H61         H  0.22430254  0.80340232  0.74670597     0.09160
H62         H  0.27766842  0.72154660  0.72647781     0.06690
H63         H  0.30054530  0.77835130  0.80488104     0.06540
O64         O  0.05594796  0.04668737  0.98347691    -0.87900
C65         C  0.11040393  0.03720415  0.05801342     0.88130
Mg66       Mg  0.02335505  0.08367914  0.98108906     1.58150
O67         O  0.04847110  0.98401929  0.05533611    -0.87630
O68         O  0.05534182  0.99593355  0.98292539    -0.74960
C69         C  0.95589220  0.08834860  0.11988512     0.93180
O70         O  0.08491579  0.09914110  0.02705832    -0.74780
O71         O  0.95915278  0.10682858  0.09694698    -0.82280
Mg72       Mg  0.10245200  0.05981285  0.99555045     1.57960
C73         C  0.99538035  0.96704036  0.13345254     0.93100
O74         O  0.12533644  0.02252750  0.96325186    -0.80540
H75         H  0.02505434  0.95143553  0.03238861    -0.05890
C76         C  0.03594441  0.05883207  0.10968800     0.88040
O77         O  0.98349255  0.05215969  0.99665840    -0.75050
O78         O  0.09843706  0.02854356  0.03353066    -0.87820
O79         O  0.02378836  0.96514678  0.12508167    -0.80630
C80         C  0.12044531  0.95765261  0.08961558     0.93220
C81         C  0.13435640  0.99445831  0.96624796     0.93070
Mg82       Mg  0.98152156  0.02307861  0.08497014     1.57950
O83         O  0.96403614  0.06017223  0.11788200    -0.80550
O84         O  0.99754905  0.98320259  0.05358576    -0.74790
O85         O  0.11955865  0.96588328  0.06130641    -0.80630
O86         O  0.10665511  0.09629673  0.95732594    -0.82340
O87         O  0.96473525  0.12529788  0.02255821    -0.80660
C88         C  0.02395079  0.97179515  0.04688250     0.87510
O89         O  0.98335577  0.05519360  0.04747646    -0.87800
O90         O  0.02810447  0.03445550  0.09704243    -0.87910
O91         O  0.02813321  0.08504204  0.09894179    -0.74960
Mg92       Mg  0.08659663  0.98174259  0.02348957     1.57970
O93         O  0.09687820  0.96045686  0.10730900    -0.82340
H94         H  0.03387152  0.02263966  0.95074210    -0.06060
O95         O  0.03409665  0.09682586  0.02758645    -0.87610
H96         H  0.05751232  0.12977209  0.04998660    -0.05890
H97         H  0.95101750  0.03179652  0.02416534    -0.06070
C98         C  0.05855913  0.10957878  0.03525685     0.87480
C99         C  0.04813632  0.02200346  0.97127842     0.88070
C100        C  0.97147017  0.04625606  0.02300534     0.88120
H101        H  0.05059423  0.05782551  0.12993712    -0.06050
O102        O  0.09936822  0.02957385  0.08433442    -0.75070
Mg103      Mg  0.99663674  0.10184881  0.05959076     1.58000
H104        H  0.13035450  0.05235818  0.05699072    -0.06060
C105        C  0.08817462  0.11920421  0.95486694     0.93100
O106        O  0.98833287  0.12156478  0.97682627    -0.82300
C107        C  0.96690244  0.13258572  0.99386107     0.93160
O108        O  0.12586657  0.97796353  0.98921313    -0.82290
Mg109      Mg  0.06024102  0.99760955  0.10182759     1.58180
O110        O  0.06018596  0.11720482  0.96399157    -0.80620
O111        O  0.97787731  0.98862547  0.12385216    -0.82310
C112        C  0.13239479  0.29772443  0.94092854     0.03570
C113        C  0.12443129  0.26701771  0.94856713    -0.12580
C114        C  0.13553839  0.24215235  0.93101556     0.01070
C115        C  0.15532066  0.24796877  0.90605184    -0.11100
C116        C  0.16510428  0.27810914  0.89888901     0.03570
C117        C  0.15329166  0.30316826  0.91618406    -0.10520
H118        H  0.10872071  0.26246200  0.96775936     0.09160
H119        H  0.16292702  0.22877008  0.89176033     0.06690
H120        H  0.15982879  0.32661404  0.91011959     0.06540
C121        C  0.93748444  0.13545201  0.29791562     0.03570
C122        C  0.91418822  0.15788720  0.30242091    -0.12580
C123        C  0.89780531  0.16977006  0.27701465     0.01070
C124        C  0.90426256  0.15898866  0.24713635    -0.11100
C125        C  0.92752454  0.13696238  0.24207380     0.03570
C126        C  0.94382860  0.12505922  0.26762641    -0.10520
H127        H  0.90868030  0.16598244  0.32556460     0.09160
H128        H  0.89070772  0.16749200  0.22781203     0.06690
H129        H  0.96122458  0.10733425  0.26397153     0.06540
C130        C  0.29736248  0.94166419  0.13666179     0.03570
C131        C  0.30151336  0.91595300  0.15677465    -0.12580
C132        C  0.27558012  0.90024430  0.16947704     0.01070
C133        C  0.24581144  0.90859430  0.15964800    -0.11100
C134        C  0.24127897  0.93419671  0.14075932     0.03570
C135        C  0.26671508  0.95158332  0.13092490    -0.10520
H136        H  0.32445839  0.90776510  0.16228615     0.09160
H137        H  0.22581877  0.89509106  0.16685413     0.06690
H138        H  0.26216210  0.97230348  0.11757157     0.06540
O139        O  0.93583206  0.55636831  0.51291095    -0.87900
C140        C  0.02405658  0.55802813  0.54561445     0.88130
Mg141      Mg  0.91607928  0.51665680  0.49271967     1.58150
O142        O  0.01271210  0.59476222  0.47433920    -0.87630
O143        O  0.94489318  0.60422719  0.49933633    -0.74960
C144        C  0.02390881  0.46306727  0.39487988     0.93180
O145        O  0.97298498  0.50144209  0.54474151    -0.74780
O146        O  0.00085763  0.45240148  0.41019644    -0.82280
Mg147      Mg  0.95660748  0.55078696  0.55735754     1.57960
C148        C  0.06889146  0.58441827  0.40089085     0.93100
O149        O  0.93906308  0.59999713  0.57294295    -0.80540
H150        H  0.99193603  0.62750760  0.44901431    -0.05890
C151        C  0.04589913  0.50754711  0.47038654     0.88040
O152        O  0.92728044  0.53481771  0.44398407    -0.75050
O153        O  0.99894323  0.56948566  0.53766260    -0.87820
O154        O  0.06918057  0.59480024  0.42855983    -0.80630
C155        C  0.06877415  0.63415617  0.52179305     0.93220
C156        C  0.95041594  0.62738819  0.57300521     0.93070
Mg157      Mg  0.01556949  0.53773596  0.41521621     1.57950
O158        O  0.03250500  0.49102252  0.39806300    -0.80550
O159        O  0.99870517  0.58692394  0.42636317    -0.74790
O160        O  0.04150034  0.63007966  0.53236365    -0.80630
O161        O  0.91276587  0.52811060  0.57864617    -0.82340
O162        O  0.92869879  0.46041065  0.43544097    -0.80660
C163        C  0.00106323  0.60421623  0.44997664     0.87510
O164        O  0.97444322  0.51887989  0.43398295    -0.87800
O165        O  0.03787553  0.53270117  0.45911633    -0.87910
O166        O  0.02771422  0.48428913  0.47140583    -0.74960
Mg167      Mg  0.99447175  0.61364146  0.51551937     1.57970
O168        O  0.07925421  0.61849705  0.49903770    -0.82340
H169        H  0.90336299  0.58303667  0.49351000    -0.06060
O170        O  0.95948359  0.49287645  0.49636611    -0.87610
H171        H  0.98037019  0.46075379  0.52239922    -0.05890
H172        H  0.94907308  0.54168238  0.40270141    -0.06070
C173        C  0.97101789  0.48393838  0.52108665     0.87480
C174        C  0.92684504  0.58121075  0.50199124     0.88070
C175        C  0.95026157  0.53175644  0.42573645     0.88120
H176        H  0.06884012  0.50542674  0.48016150    -0.06050
O177        O  0.04742799  0.55695433  0.52735006    -0.75070
Mg178      Mg  0.97812145  0.47370061  0.45398295     1.58000
H179        H  0.02604162  0.54813043  0.56860840    -0.06060
C180        C  0.89663400  0.50594683  0.56765850     0.93100
O181        O  0.89404149  0.47626018  0.47057700    -0.82300
C182        C  0.90092353  0.46164239  0.44603536     0.93160
O183        O  0.97467881  0.63438639  0.55785980    -0.82290
Mg184      Mg  0.05772437  0.57474834  0.47759841     1.58180
O185        O  0.89883086  0.49814368  0.53929842    -0.80620
O186        O  0.05810720  0.55799906  0.39436934    -0.82310
C187        C  0.72957706  0.44011875  0.39140180     0.03570
C188        C  0.72494744  0.41598642  0.36990586    -0.12580
C189        C  0.75062836  0.40014077  0.35722931     0.01070
C190        C  0.78060322  0.40731921  0.36715017    -0.11100
C191        C  0.78532388  0.42965698  0.38982578     0.03570
C192        C  0.75998484  0.44660665  0.40122645    -0.10520
H193        H  0.70167816  0.40920065  0.36349279     0.09160
H194        H  0.80022718  0.39424910  0.35833818     0.06690
H195        H  0.76381813  0.46399078  0.41887716     0.06540
C196        C  0.09210583  0.63602617  0.22900850     0.03570
C197        C  0.11549151  0.65825580  0.22411248    -0.12580
C198        C  0.12862158  0.67365447  0.24954717     0.01070
C199        C  0.11854916  0.66687799  0.27971378    -0.11100
C200        C  0.09631434  0.64391758  0.28510964     0.03570
C201        C  0.08344934  0.62848511  0.25959459    -0.10520
H202        H  0.12365365  0.66328668  0.20083354     0.09160
H203        H  0.12891149  0.67892015  0.29908599     0.06690
H204        H  0.06672511  0.61018202  0.26351795     0.06540
C205        C  0.89212337  0.79841547  0.58885166     0.03570
C206        C  0.86766402  0.80207064  0.61031165    -0.12580
C207        C  0.85486764  0.77607817  0.62546604     0.01070
C208        C  0.86743132  0.74671287  0.61961453    -0.11100
C209        C  0.89158278  0.74278385  0.59832483     0.03570
C210        C  0.90389352  0.76869583  0.58290342    -0.10520
H211        H  0.85896884  0.82502317  0.61543465     0.09160
H212        H  0.85905257  0.72677385  0.63246807     0.06690
H213        H  0.92326071  0.76586430  0.56702005     0.06540
O214        O  0.05820349  0.98142489  0.54354183    -0.87900
C215        C  0.11069111  0.99350429  0.46687085     0.88130
Mg216      Mg  0.02673609  0.94331276  0.54687701     1.58150
O217        O  0.04848280  0.04600305  0.47184686    -0.87630
O218        O  0.05582437  0.03225102  0.54378138    -0.74960
C219        C  0.95453476  0.94121208  0.41134232     0.93180
O220        O  0.08677649  0.93078530  0.49721167    -0.74780
O221        O  0.95897465  0.92309680  0.43422368    -0.82280
Mg222      Mg  0.10446683  0.96993293  0.52860361     1.57960
C223        C  0.99363459  0.06306137  0.39579372     0.93100
O224        O  0.12757860  0.00651074  0.56038061    -0.80540
H225        H  0.02551491  0.07854716  0.49554275    -0.05890
C226        C  0.03508179  0.97117574  0.41784559     0.88040
O227        O  0.98578514  0.97464505  0.53344016    -0.75050
O228        O  0.09882417  0.00177007  0.49166950    -0.87820
O229        O  0.02235971  0.06473993  0.40279403    -0.80630
C230        C  0.11983751  0.07352023  0.43646645     0.93220
C231        C  0.13565864  0.03485804  0.55856683     0.93070
Mg232      Mg  0.98113641  0.00657513  0.44502294     1.57950
O233        O  0.96261190  0.96953234  0.41243939    -0.80550
O234        O  0.99766857  0.04638771  0.47580930    -0.74790
O235        O  0.11904458  0.06550686  0.46488690    -0.80630
O236        O  0.11098972  0.93359702  0.56580776    -0.82340
O237        O  0.96646023  0.90360161  0.50755508    -0.80660
C238        C  0.02413727  0.05810784  0.48120875     0.87510
O239        O  0.98463980  0.97398339  0.48250308    -0.87800
O240        O  0.02745062  0.99557520  0.43068901    -0.87910
O241        O  0.02773214  0.94492604  0.42895190    -0.74960
Mg242      Mg  0.08655128  0.04825047  0.50307652     1.57970
O243        O  0.09663259  0.06962206  0.41869569    -0.82340
H244        H  0.03532326  0.00497178  0.57637990    -0.06060
O245        O  0.03600785  0.93174354  0.49969164    -0.87610
H246        H  0.05917038  0.89981725  0.47534250    -0.05890
H247        H  0.95282737  0.99633681  0.50791186    -0.06070
C248        C  0.06037765  0.91976029  0.49037867     0.87480
C249        C  0.04959663  0.00596725  0.55565084     0.88070
C250        C  0.97333164  0.98191874  0.50774313     0.88120
H251        H  0.04920155  0.97220120  0.39701015    -0.06050
O252        O  0.09913125  0.00091283  0.44088719    -0.75070
Mg253      Mg  0.99751601  0.92750127  0.46946663     1.58000
H254        H  0.13091725  0.97871121  0.46734335    -0.06060
C255        C  0.09396916  0.90973071  0.56864854     0.93100
O256        O  0.99255610  0.90436235  0.55175122    -0.82300
C257        C  0.97007423  0.89459281  0.53562273     0.93160
O258        O  0.12563145  0.05250622  0.53722885    -0.82290
Mg259      Mg  0.05955227  0.03255340  0.42493644     1.58180
O260        O  0.06531722  0.90989023  0.56168065    -0.80620
O261        O  0.97622483  0.04175415  0.40652606    -0.82310
C262        C  0.13423983  0.73172622  0.58701932     0.03570
C263        C  0.12730534  0.76267732  0.57919579    -0.12580
C264        C  0.13640627  0.78714748  0.59825742     0.01070
C265        C  0.15479375  0.78118058  0.62405074    -0.11100
C266        C  0.16333729  0.75086134  0.63162306     0.03570
C267        C  0.15259663  0.72602248  0.61350301    -0.10520
H268        H  0.11364710  0.76783676  0.55881855     0.09160
H269        H  0.16243407  0.80026365  0.63839525     0.06690
H270        H  0.15782482  0.70254603  0.62054511     0.06540
C271        C  0.29860887  0.08955620  0.39780535     0.03570
C272        C  0.30488870  0.11477855  0.37783044    -0.12580
C273        C  0.28034610  0.13222088  0.36536058     0.01070
C274        C  0.24968239  0.12436638  0.37260211    -0.11100
C275        C  0.24311402  0.09877086  0.39122678     0.03570
C276        C  0.26745859  0.08102922  0.40317369    -0.10520
H277        H  0.32858795  0.12152998  0.37283479     0.09160
H278        H  0.23078105  0.13828497  0.36367550     0.06690
H279        H  0.26200270  0.06121615  0.41764633     0.06540
C280        C  0.94063509  0.89520614  0.23277056     0.03570
C281        C  0.91796440  0.87214471  0.22859818    -0.12580
C282        C  0.90145723  0.86040352  0.25412979     0.01070
C283        C  0.90695851  0.87209933  0.28369275    -0.11100
C284        C  0.92894953  0.89535258  0.28836206     0.03570
C285        C  0.94611265  0.90657218  0.26285016    -0.10520
H286        H  0.91287065  0.86362841  0.20557186     0.09160
H287        H  0.89311751  0.86373026  0.30305279     0.06690
H288        H  0.96304325  0.92474834  0.26626428     0.06540
O289        O  0.48711065  0.47345757  0.98013107    -0.87900
C290        C  0.56206176  0.41994732  0.99437578     0.88130
Mg291      Mg  0.48569372  0.50498397  0.94175135     1.58150
O292        O  0.55779536  0.48310394  0.04580567    -0.87630
O293        O  0.48570392  0.47637548  0.03108700    -0.74960
C294        C  0.62234916  0.57455815  0.93892420     0.93180
O295        O  0.53497769  0.44451922  0.93143850    -0.74780
O296        O  0.59930543  0.57057463  0.92110983    -0.82280
Mg297      Mg  0.50157497  0.42706240  0.96911670     1.57960
C298        C  0.63720948  0.53606191  0.06069816     0.93100
O299        O  0.46820800  0.40369028  0.00515219    -0.80540
H300        H  0.53408266  0.50740074  0.07747030    -0.05890
C301        C  0.61373003  0.49434225  0.97072489     0.88040
O302        O  0.49927834  0.54559781  0.97327990    -0.75050
O303        O  0.53739686  0.43247569  0.00192330    -0.87820
O304        O  0.62877903  0.50787985  0.06419589    -0.80630
C305        C  0.59129193  0.41119191  0.07356113     0.93220
C306        C  0.47009204  0.39566169  0.03364098     0.93070
Mg307      Mg  0.58759685  0.54910533  0.00485836     1.57950
O308        O  0.62170419  0.56658169  0.96739912    -0.80550
O309        O  0.55564535  0.53389917  0.04491027    -0.74790
O310        O  0.56294946  0.41216615  0.06540662    -0.80630
O311        O  0.46610879  0.42080006  0.93063624    -0.82340
O312        O  0.52731679  0.56397965  0.90207401    -0.80660
C313        C  0.54896142  0.50790929  0.05715543     0.87510
O314        O  0.55031801  0.54638838  0.97240684    -0.87800
O315        O  0.60044857  0.50232557  0.99488199    -0.87910
O316        O  0.60354647  0.50197034  0.94421834    -0.74960
Mg317      Mg  0.52546996  0.44536938  0.04804854     1.57970
O318        O  0.60880405  0.43485929  0.07126807    -0.82340
H319        H  0.45408708  0.49677841  0.00297167    -0.06060
O320        O  0.53296973  0.49513905  0.93115148    -0.87610
H321        H  0.55872653  0.47133314  0.90077447    -0.05890
H322        H  0.52517490  0.57825383  0.99485283    -0.06070
C323        C  0.54260163  0.47057873  0.92011814     0.87480
C324        C  0.47454224  0.48238039  0.00446328     0.88070
C325        C  0.52514362  0.55783326  0.98041525     0.88120
H326        H  0.63413775  0.47987111  0.97218022    -0.06050
O327        O  0.58813653  0.43110147  0.00201028    -0.75070
Mg328      Mg  0.56387999  0.53269409  0.92626599     1.58000
H329        H  0.56143046  0.39945141  0.98006267    -0.06060
C330        C  0.46479751  0.43833908  0.90690109     0.93100
O331        O  0.48195495  0.53934204  0.90255675    -0.82300
C332        C  0.49934998  0.56111958  0.89294361     0.93160
O333        O  0.49054571  0.40661319  0.05168383    -0.82290
Mg334      Mg  0.60470211  0.47089785  0.03291212     1.58180
O335        O  0.47216357  0.46680434  0.90789577    -0.80620
O336        O  0.62575426  0.55290656  0.03951387    -0.82310
C337        C  0.43561580  0.39868233  0.72860441     0.03570
C338        C  0.44571954  0.40840103  0.75787086    -0.12580
C339        C  0.43362126  0.39478869  0.78480304     0.01070
C340        C  0.41373258  0.36956754  0.78205545    -0.11100
C341        C  0.39994222  0.36208784  0.75353680     0.03570
C342        C  0.41124917  0.37700993  0.72651321    -0.10520
H343        H  0.46256908  0.42692104  0.75956604     0.09160
H344        H  0.40755988  0.35706515  0.80298275     0.06690
H345        H  0.40135158  0.37215558  0.70406228     0.06540
C346        C  0.63614580  0.23305461  0.08840034     0.03570
C347        C  0.66043448  0.22809142  0.10953126    -0.12580
C348        C  0.67363896  0.25331789  0.12528137     0.01070
C349        C  0.66192517  0.28315794  0.12033355    -0.11100
C350        C  0.63754260  0.28831178  0.09982680     0.03570
C351        C  0.62498675  0.26325370  0.08356556    -0.10520
H352        H  0.66845064  0.20479529  0.11420503     0.09160
H353        H  0.67124659  0.30246235  0.13331942     0.06690
H354        H  0.60590520  0.26709691  0.06776184     0.06540
C355        C  0.80007474  0.59105134  0.89602462     0.03570
C356        C  0.80552713  0.61480066  0.87409405    -0.12580
C357        C  0.78033870  0.63129957  0.86149073     0.01070
C358        C  0.75009985  0.62434140  0.87116902    -0.11100
C359        C  0.74452199  0.60083525  0.89256656     0.03570
C360        C  0.76933311  0.58410120  0.90481117    -0.10520
H361        H  0.82902224  0.62070796  0.86730337     0.09160
H362        H  0.73069089  0.63737764  0.86199566     0.06690
H363        H  0.76471505  0.56602630  0.92169432     0.06540
O364        O  0.01063873  0.43500744  0.05641012    -0.87900
C365        C  0.04850031  0.52059058  0.05755500     0.88130
Mg366      Mg  0.98931048  0.41609488  0.01727270     1.58150
O367        O  0.97710153  0.51278138  0.09533346    -0.87630
O368        O  0.99825732  0.44417464  0.10470716    -0.74960
C369        C  0.89577039  0.52672073  0.96537636     0.93180
O370        O  0.04428135  0.47020001  0.00102114    -0.74780
O371        O  0.90902640  0.50234678  0.95527158    -0.82280
Mg372      Mg  0.05611382  0.45291130  0.05046550     1.57960
C373        C  0.90688505  0.57376332  0.08472261     0.93100
O374        O  0.06870770  0.43324638  0.09947175    -0.80540
H375        H  0.95065745  0.49378570  0.12862399    -0.05890
C376        C  0.97411919  0.54620052  0.00753688     0.88040
O377        O  0.94178517  0.42991545  0.03673931    -0.75050
O378        O  0.03913573  0.49596380  0.06909048    -0.87820
O379        O  0.93420752  0.57123061  0.09568567    -0.80630
C380        C  0.02860789  0.56602802  0.13359591     0.93220
C381        C  0.06939209  0.44386584  0.12708115     0.93070
Mg382      Mg  0.91788934  0.51964099  0.03878299     1.57950
O383        O  0.90224757  0.53780070  0.99181628    -0.80550
O384        O  0.92803407  0.50238602  0.08829957    -0.74790
O385        O  0.03803853  0.53863367  0.12869099    -0.80630
O386        O  0.07464526  0.40828790  0.02833801    -0.82340
O387        O  0.93097013  0.43073714  0.96416656    -0.80660
C388        C  0.95203914  0.50284162  0.10521229     0.87510
O389        O  0.93415634  0.47735089  0.02075323    -0.87800
O390        O  0.96302222  0.53881822  0.03311353    -0.87910
O391        O  0.97327633  0.52804968  0.98423741    -0.74960
Mg392      Mg  0.01766561  0.49262440  0.11368472     1.57970
O393        O  0.00549375  0.57721295  0.11906602    -0.82340
H394        H  0.98964746  0.40339428  0.08320975    -0.06060
O395        O  0.99504335  0.45907689  0.99310433    -0.87610
H396        H  0.02182800  0.47895211  0.96059737    -0.05890
H397        H  0.90216431  0.45394972  0.04502400    -0.06070
C398        C  0.02028113  0.46951709  0.98384543     0.87480
C399        C  0.99949500  0.42635028  0.08142646     0.88070
C400        C  0.92490115  0.45382553  0.03423621     0.88120
H401        H  0.98513874  0.56855375  0.00498550    -0.06050
O402        O  0.03166230  0.54485031  0.05681619    -0.75070
Mg403      Mg  0.95289642  0.47915148  0.97502756     1.58000
H404        H  0.07150259  0.52139213  0.04736436    -0.06060
C405        C  0.06274675  0.39282418  0.00626729     0.93100
O406        O  0.96513144  0.39441068  0.97762870    -0.82300
C407        C  0.93979727  0.40253439  0.96531998     0.93160
O408        O  0.05938649  0.47056707  0.13382935    -0.82290
Mg409      Mg  0.98266129  0.55735741  0.07524530     1.58180
O410        O  0.03482046  0.39706640  0.99787660    -0.80620
O411        O  0.89985752  0.56362974  0.05820405    -0.82310
C412        C  0.73390918  0.58908371  0.13705361     0.03570
C413        C  0.72854155  0.61448915  0.15666081    -0.12580
C414        C  0.75359365  0.63196884  0.16751765     0.01070
C415        C  0.78385783  0.62391181  0.15925139    -0.11100
C416        C  0.78949021  0.59866286  0.14000052     0.03570
C417        C  0.76452673  0.58107507  0.12893783    -0.10520
H418        H  0.70502140  0.62146351  0.16222329     0.09160
H419        H  0.80312634  0.63786715  0.16723879     0.06690
H420        H  0.76877823  0.56245443  0.11267316     0.06540
C421        C  0.09141433  0.39485441  0.29984871     0.03570
C422        C  0.11511430  0.37307355  0.30496323    -0.12580
C423        C  0.12958206  0.35850297  0.27959210     0.01070
C424        C  0.11957463  0.36469862  0.24939057    -0.11100
C425        C  0.09643573  0.38665963  0.24382444     0.03570
C426        C  0.08254389  0.40168720  0.26924733    -0.10520
H427        H  0.12309884  0.36847598  0.32829572     0.09160
H428        H  0.13087048  0.35320753  0.23006905     0.06690
H429        H  0.06527385  0.41943927  0.26527466     0.06540
C430        C  0.89383952  0.23047025  0.93798978     0.03570
C431        C  0.90111185  0.26073837  0.94712361    -0.12580
C432        C  0.88791976  0.28617467  0.93177779     0.01070
C433        C  0.86585890  0.28121071  0.90875778    -0.11100
C434        C  0.85834017  0.25116131  0.89943883     0.03570
C435        C  0.87282678  0.22573629  0.91365057    -0.10520
H436        H  0.91840340  0.26447812  0.96487064     0.09160
H437        H  0.85556529  0.30086364  0.89699011     0.06690
H438        H  0.86833933  0.20251967  0.90537702     0.06540
O439        O  0.48176136  0.98399240  0.97316519    -0.87900
C440        C  0.49468961  0.05903307  0.91815648     0.88130
Mg441      Mg  0.44368446  0.98198263  0.00502488     1.58150
O442        O  0.54639596  0.05656629  0.98122266    -0.87630
O443        O  0.53272254  0.98427238  0.97558948    -0.74960
C444        C  0.43740760  0.12178930  0.06678259     0.93180
O445        O  0.43074142  0.02906613  0.94236831    -0.74780
O446        O  0.41955899  0.09841274  0.06542767    -0.82280
Mg447      Mg  0.47023934  0.99734693  0.92619499     1.57960
C448        C  0.56015353  0.13614285  0.03439037     0.93100
O449        O  0.50752087  0.96455048  0.90442454    -0.80540
H450        H  0.57828688  0.03397818  0.00606037    -0.05890
C451        C  0.47075666  0.11009046  0.98949350     0.88040
O452        O  0.47430624  0.99793477  0.04533207    -0.75050
O453        O  0.50219057  0.03467352  0.93121739    -0.87820
O454        O  0.56477238  0.12744561  0.00629058    -0.80630
C455        C  0.57448934  0.08924606  0.90846180     0.93220
C456        C  0.53601685  0.96673263  0.89626588     0.93070
Mg457      Mg  0.50426331  0.08641882  0.04589968     1.57950
O458        O  0.46601612  0.11966270  0.06000175    -0.80550
O459        O  0.54523065  0.05515983  0.03217963    -0.74790
O460        O  0.56579252  0.06114651  0.91008109    -0.80630
O461        O  0.43250349  0.96061079  0.92037326    -0.82340
O462        O  0.40358637  0.02500773  0.06264241    -0.80660
C463        C  0.55774191  0.04833689  0.00626649     0.87510
O464        O  0.47267247  0.04871713  0.04342805    -0.87800
O465        O  0.49516571  0.09837886  0.99885858    -0.87910
O466        O  0.44433564  0.09917058  0.99681673    -0.74960
Mg467      Mg  0.54869669  0.02401786  0.94377286     1.57970
O468        O  0.57188383  0.10749162  0.93158431    -0.82340
H469        H  0.50558140  0.95217808  0.99694847    -0.06060
O470        O  0.43172064  0.02840077  0.99313029    -0.87610
H471        H  0.39913064  0.05112035  0.96941850    -0.05890
H472        H  0.49484207  0.02577854  0.07700592    -0.06070
C473        C  0.41945394  0.03646813  0.96856490     0.87480
C474        C  0.50644947  0.97239984  0.98211559     0.88070
C475        C  0.48080743  0.02441943  0.05635236     0.88120
H476        H  0.47196574  0.12972936  0.97390363    -0.06050
O477        O  0.50284851  0.08531110  0.92845304    -0.75070
Mg478      Mg  0.42641106  0.06080448  0.02940179     1.58000
H479        H  0.48024918  0.05797476  0.89776760    -0.06060
C480        C  0.40934447  0.95776638  0.93873158     0.93100
O481        O  0.40391230  0.97892264  0.03931171    -0.82300
C482        C  0.39441349  0.99702706  0.06053604     0.93160
O483        O  0.55286284  0.98908642  0.90523276    -0.82290
Mg484      Mg  0.53360308  0.10306334  0.96818463     1.58180
O485        O  0.41153060  0.96503644  0.96716529    -0.80620
O486        O  0.53787633  0.12532241  0.05030539    -0.82310
C487        C  0.58936488  0.13644157  0.72882061     0.03570
C488        C  0.61369280  0.15805031  0.72584482    -0.12580
C489        C  0.62993698  0.16809214  0.75216215     0.01070
C490        C  0.62225024  0.15566833  0.78126439    -0.11100
C491        C  0.59815837  0.13433044  0.78460178     0.03570
C492        C  0.58185867  0.12448469  0.75835361    -0.10520
H493        H  0.61964423  0.16729853  0.70320281     0.09160
H494        H  0.63517763  0.16258515  0.80159473     0.06690
H495        H  0.56341937  0.10761197  0.76089302     0.06540
C496        C  0.39201252  0.30009207  0.08823319     0.03570
C497        C  0.37436551  0.30460648  0.11557911    -0.12580
C498        C  0.36378977  0.27878440  0.13268599     0.01070
C499        C  0.37366151  0.24910612  0.12404308    -0.11100
C500        C  0.38861304  0.24384906  0.09566964     0.03570
C501        C  0.39602151  0.26971149  0.07719879    -0.10520
H502        H  0.36932940  0.32772913  0.12374927     0.09160
H503        H  0.36885544  0.23001099  0.13960626     0.06690
H504        H  0.40673964  0.26653576  0.05469111     0.06540
C505        C  0.23098648  0.93954773  0.89060219     0.03570
C506        C  0.22684864  0.91482483  0.86989100    -0.12580
C507        C  0.25258514  0.89856202  0.85841959     0.01070
C508        C  0.28237813  0.90610696  0.86848624    -0.11100
C509        C  0.28716228  0.93092959  0.88871836     0.03570
C510        C  0.26123009  0.94775007  0.89949318    -0.10520
H511        H  0.20371231  0.90810620  0.86290441     0.09160
H512        H  0.30181923  0.89211289  0.86086297     0.06690
H513        H  0.26441600  0.96661952  0.91565169     0.06540
O514        O  0.55397703  0.51785840  0.59508639    -0.87900
C515        C  0.55913278  0.48592817  0.50668752     0.88130
Mg516      Mg  0.51221412  0.53597340  0.61352731     1.58150
O517        O  0.59740969  0.55552862  0.52013994    -0.87630
O518        O  0.60270517  0.53010585  0.58735855    -0.74960
C519        C  0.46571083  0.63486160  0.50537836     0.93180
O520        O  0.50145070  0.48372926  0.55603975    -0.74780
O521        O  0.45376967  0.61824187  0.52677941    -0.82280
Mg522      Mg  0.55076479  0.47343719  0.57440166     1.57960
C523        C  0.58993023  0.63055887  0.46608885     0.93100
O524        O  0.59980240  0.46256749  0.59539566    -0.80540
H525        H  0.62829634  0.57936267  0.54486272    -0.05890
C526        C  0.51178162  0.56066836  0.48333705     0.88040
O527        O  0.52973961  0.58533923  0.60501795    -0.75050
O528        O  0.56957069  0.49365450  0.53226345    -0.87820
O529        O  0.59969977  0.60269678  0.46446167    -0.80630
C530        C  0.63688535  0.50687448  0.46388926     0.93220
C531        C  0.62704528  0.46175468  0.58366411     0.93070
Mg532      Mg  0.54024487  0.61481336  0.51779772     1.57950
O533        O  0.49450141  0.63299324  0.49894693    -0.80550
O534        O  0.58801717  0.60227688  0.53705711    -0.74790
O535        O  0.63039338  0.49601665  0.49053340    -0.80630
O536        O  0.52796405  0.45166202  0.61746777    -0.82340
O537        O  0.45942205  0.59318518  0.59842687    -0.80660
C538        C  0.60572545  0.57901630  0.53406982     0.87510
O539        O  0.51869602  0.59438431  0.55645747    -0.87800
O540        O  0.53634155  0.57213837  0.49282214    -0.87910
O541        O  0.48762512  0.55837754  0.50041800    -0.74960
Mg542      Mg  0.61409530  0.51346630  0.53765953     1.57970
O543        O  0.62386633  0.53150333  0.45404647    -0.82340
H544        H  0.57963863  0.53816312  0.62778546    -0.06060
O545        O  0.49209768  0.53218977  0.56857262    -0.87610
H546        H  0.46082707  0.50577942  0.54697616    -0.05890
H547        H  0.53746623  0.62659369  0.58377858    -0.06070
C548        C  0.48370022  0.50733364  0.55700321     0.87480
C549        C  0.57863572  0.52891289  0.60451818     0.88070
C550        C  0.52863142  0.60327387  0.58172895     0.88120
H551        H  0.51108471  0.55154110  0.46001137    -0.06050
O552        O  0.55996425  0.50406823  0.48328121    -0.75070
Mg553      Mg  0.47401109  0.57461412  0.54965651     1.58000
H554        H  0.54878903  0.46327946  0.50421415    -0.06060
C555        C  0.50340393  0.46094687  0.63112217     0.93100
O556        O  0.46892447  0.55628066  0.63335849    -0.82300
C557        C  0.45801078  0.58251289  0.62605550     0.93160
O558        O  0.63207709  0.46933858  0.55583594    -0.82290
Mg559      Mg  0.57919872  0.55358722  0.47448332     1.58180
O560        O  0.49373281  0.48856511  0.62788319    -0.80620
O561        O  0.56418686  0.63769548  0.47842421    -0.82310
C562        C  0.63494919  0.80474443  0.43985293     0.03570
C563        C  0.65545987  0.80744337  0.41433664    -0.12580
C564        C  0.67003794  0.78080048  0.40215979     0.01070
C565        C  0.66384995  0.75208468  0.41620322    -0.11100
C566        C  0.64053334  0.74891395  0.43825118     0.03570
C567        C  0.62691971  0.77527425  0.45115426    -0.10520
H568        H  0.65939398  0.82989945  0.40384689     0.09160
H569        H  0.67538236  0.73127568  0.40819846     0.06690
H570        H  0.60923749  0.77286049  0.46896970     0.06540
C571        C  0.43971988  0.63579492  0.79821476     0.03570
C572        C  0.41740411  0.65934799  0.80283563    -0.12580
C573        C  0.40095455  0.67164415  0.77755931     0.01070
C574        C  0.40786995  0.66181232  0.74748795    -0.11100
C575        C  0.43039722  0.63931220  0.74228408     0.03570
C576        C  0.44587148  0.62602676  0.76756263    -0.10520
H577        H  0.41219977  0.66774121  0.82589427     0.09160
H578        H  0.39507282  0.67124204  0.72805365     0.06690
H579        H  0.46211333  0.60740642  0.76317681     0.06540
C580        C  0.80039885  0.43966381  0.63477125     0.03570
C581        C  0.80240098  0.41661740  0.65793122    -0.12580
C582        C  0.77559500  0.40744781  0.67473547     0.01070
C583        C  0.74784149  0.42350000  0.66904488    -0.11100
C584        C  0.74450776  0.44226470  0.64294626     0.03570
C585        C  0.77111898  0.45080606  0.62611237    -0.10520
H586        H  0.82455008  0.40568757  0.66196097     0.09160
H587        H  0.72756562  0.41942454  0.68340202     0.06690
H588        H  0.76923034  0.46599487  0.60619159     0.06540
O589        O  0.47662548  0.01670560  0.59451572    -0.87900
C590        C  0.47157206  0.04676577  0.50562998     0.88130
Mg591      Mg  0.51803296  0.99929922  0.61356491     1.58150
O592        O  0.43543291  0.97580622  0.51997066    -0.87630
O593        O  0.42884974  0.00150967  0.58703561    -0.74960
C594        C  0.56917515  0.90023783  0.50710014     0.93180
O595        O  0.52921382  0.04986333  0.55442612    -0.74780
O596        O  0.57999938  0.91559883  0.52980913    -0.82280
Mg597      Mg  0.47973579  0.06075590  0.57244535     1.57960
C598        C  0.44583829  0.90025121  0.46651886     0.93100
O599        O  0.43103635  0.07410031  0.59204463    -0.80540
H600        H  0.40449158  0.95124696  0.54445408    -0.05890
C601        C  0.52205735  0.97211507  0.48439176     0.88040
O602        O  0.50137991  0.94958454  0.60594102    -0.75050
O603        O  0.46069186  0.03950915  0.53132801    -0.87820
O604        O  0.43589412  0.92800322  0.46373894    -0.80630
C605        C  0.39582555  0.02281889  0.46307904     0.93220
C606        C  0.40322399  0.07342724  0.58212912     0.93070
Mg607      Mg  0.49405048  0.91805905  0.51934572     1.57950
O608        O  0.54057812  0.90185735  0.50012177    -0.80550
O609        O  0.44582661  0.92968824  0.53814943    -0.74790
O610        O  0.39953703  0.03309067  0.49043783    -0.80630
O611        O  0.50187101  0.08380013  0.61505104    -0.82340
O612        O  0.57387894  0.94290822  0.60127107    -0.80660
C613        C  0.42741194  0.95220333  0.53411681     0.87510
O614        O  0.51444229  0.93926996  0.55803697    -0.87800
O615        O  0.49740239  0.96047212  0.49375344    -0.87910
O616        O  0.54582370  0.97468314  0.50168656    -0.74960
Mg617      Mg  0.41687423  0.01716205  0.53768514     1.57970
O618        O  0.41047571  0.99905287  0.45345560    -0.82340
H619        H  0.45171900  0.99561548  0.62763746    -0.06060
O620        O  0.53962690  0.00216627  0.56897946    -0.87610
H621        H  0.57040060  0.02845564  0.54602895    -0.05890
H622        H  0.49489067  0.90767824  0.58591052    -0.06070
C623        C  0.54749081  0.02675155  0.55631528     0.87480
C624        C  0.45246987  0.00459323  0.60418079     0.88070
C625        C  0.50360942  0.93101320  0.58331952     0.88120
H626        H  0.52323286  0.98101876  0.46091827    -0.06050
O627        O  0.47220905  0.02790182  0.48292083    -0.75070
Mg628      Mg  0.55888938  0.95958706  0.55149708     1.58000
H629        H  0.48128249  0.06964791  0.50251383    -0.06060
C630        C  0.52581751  0.07465273  0.62964146     0.93100
O631        O  0.56050135  0.98006666  0.63436578    -0.82300
C632        C  0.57381014  0.95457513  0.62854121     0.93160
O633        O  0.39570824  0.05955699  0.55747752    -0.82290
Mg634      Mg  0.45476910  0.97788152  0.47444985     1.58180
O635        O  0.53563337  0.04700516  0.62750677    -0.80620
O636        O  0.47081260  0.89378091  0.48050227    -0.82310
C637        C  0.39820390  0.72781769  0.43567294     0.03570
C638        C  0.40851630  0.75787323  0.44218690    -0.12580
C639        C  0.39519542  0.78374262  0.42763316     0.01070
C640        C  0.37141198  0.77916532  0.40620665    -0.11100
C641        C  0.36154322  0.74920762  0.39873497     0.03570
C642        C  0.37434625  0.72349534  0.41406745    -0.10520
H643        H  0.42724830  0.76105952  0.45853175     0.09160
H644        H  0.36083133  0.79889932  0.39487103     0.06690
H645        H  0.36684985  0.70033042  0.40817129     0.06540
C646        C  0.23018601  0.09670151  0.63005772     0.03570
C647        C  0.26015388  0.09237313  0.61779733    -0.12580
C648        C  0.28546611  0.10842394  0.62992584     0.01070
C649        C  0.28109617  0.12904495  0.65423998    -0.11100
C650        C  0.25163805  0.13348704  0.66732775     0.03570
C651        C  0.22614995  0.11694791  0.65544273    -0.10520
H652        H  0.26387140  0.07670726  0.59854144     0.09160
H653        H  0.30093117  0.14152769  0.66319004     0.06690
H654        H  0.20342593  0.11970039  0.66584277     0.06540
C655        C  0.59059326  0.89179260  0.79963134     0.03570
C656        C  0.61302383  0.86835052  0.80288251    -0.12580
C657        C  0.62988752  0.85798635  0.77688247     0.01070
C658        C  0.62431508  0.87125932  0.74777917    -0.11100
C659        C  0.60245420  0.89479381  0.74425689     0.03570
C660        C  0.58510872  0.90454857  0.77015157    -0.10520
H661        H  0.61776028  0.85870563  0.82558249     0.09160
H662        H  0.63807034  0.86410075  0.72792074     0.06690
H663        H  0.56834148  0.92305624  0.76763384     0.06540
C664        C  0.26134153  0.23530247  0.75130548     0.03570
C665        C  0.23922463  0.24334715  0.77366789    -0.12580
C666        C  0.24235403  0.27078083  0.79036539     0.01070
C667        C  0.26588827  0.29156082  0.78249893    -0.11100
C668        C  0.29017209  0.28273046  0.76230127     0.03570
C669        C  0.28721267  0.25450927  0.74618036    -0.10520
H670        H  0.22030673  0.22763876  0.77897945     0.09160
H671        H  0.26621548  0.31372562  0.79405463     0.06690
H672        H  0.30508280  0.24683318  0.73025222     0.06540
C673        C  0.27004038  0.15453136  0.71744609    -0.11820
C674        C  0.24882873  0.15625375  0.69284896     0.05180
C675        C  0.22991745  0.18260511  0.69005734    -0.07110
C676        C  0.23421980  0.20755410  0.71009202    -0.07860
C677        C  0.25700057  0.20681425  0.73315728    -0.02410
C678        C  0.27461600  0.17944725  0.73788094     0.04410
N679        N  0.29710451  0.17625807  0.76253392     0.66920
H680        H  0.28423023  0.13395980  0.71964982     0.15820
H681        H  0.22030767  0.22821218  0.70694158     0.15530
N682        N  0.20777379  0.18535758  0.66570630     0.74620
O683        O  0.31053957  0.15066861  0.76697389    -0.38830
O684        O  0.30333497  0.19835183  0.78051200    -0.38770
O685        O  0.18060362  0.17532903  0.67002604    -0.39480
O686        O  0.21303988  0.20368452  0.64346575    -0.39540
C687        C  0.59353488  0.89191814  0.68733290    -0.11820
C688        C  0.59920470  0.91012481  0.71366743     0.05180
C689        C  0.60123625  0.94257637  0.71043733    -0.07110
C690        C  0.59517280  0.95602395  0.68154645    -0.07860
C691        C  0.58708951  0.93808298  0.65560212    -0.02410
C692        C  0.58714090  0.90546251  0.65842861     0.04410
N693        N  0.57853966  0.88576114  0.63319707     0.66920
H694        H  0.59224421  0.86697244  0.68967125     0.15820
H695        H  0.59605299  0.98101011  0.67951073     0.15530
N696        N  0.60945811  0.96218936  0.73604100     0.74620
O697        O  0.59502396  0.86247115  0.62680357    -0.38830
O698        O  0.55172028  0.88776514  0.62180301    -0.38770
O699        O  0.63063705  0.95424308  0.75452052    -0.39480
O700        O  0.59784159  0.98890781  0.73839497    -0.39540
C701        C  0.36539036  0.11497894  0.59281807    -0.11820
C702        C  0.37759047  0.08595588  0.60057988     0.05180
C703        C  0.36000630  0.06536219  0.61902776    -0.07110
C704        C  0.32981713  0.07332297  0.62761315    -0.07860
C705        C  0.31708885  0.10177899  0.61899444    -0.02410
C706        C  0.33525841  0.12347670  0.60217854     0.04410
N707        N  0.32331262  0.15336645  0.59335774     0.66920
H708        H  0.37867174  0.13023635  0.57781996     0.15820
H709        H  0.31615834  0.05728966  0.64144005     0.15530
N710        N  0.37226424  0.03592745  0.62841359     0.74620
O711        O  0.34170792  0.17551966  0.58805855    -0.38830
O712        O  0.29472243  0.15731229  0.58859459    -0.38770
O713        O  0.39924723  0.03431587  0.63944887    -0.39480
O714        O  0.35481177  0.01250503  0.62998503    -0.39540
C715        C  0.42347528  0.86783426  0.42432074    -0.11820
C716        C  0.42733145  0.87365315  0.45600999     0.05180
C717        C  0.41875603  0.85076416  0.47785572    -0.07110
C718        C  0.40798008  0.82215640  0.46770319    -0.07860
C719        C  0.40557773  0.81538860  0.43608556    -0.02410
C720        C  0.41298926  0.83873474  0.41395161     0.04410
N721        N  0.41208351  0.83283972  0.38116564     0.66920
H722        H  0.43083564  0.88511455  0.40757866     0.15820
H723        H  0.40134525  0.80493150  0.48481814     0.15530
N724        N  0.42109017  0.85621251  0.51057095     0.74620
O725        O  0.40470483  0.85422164  0.36261599    -0.38830
O726        O  0.42226317  0.80765951  0.37036672    -0.38770
O727        O  0.40913322  0.88019939  0.52217234    -0.39480
O728        O  0.43077918  0.83512123  0.52836520    -0.39540
C729        C  0.63329168  0.84459616  0.48084606    -0.11820
C730        C  0.62002948  0.83214200  0.45397994     0.05180
C731        C  0.59174849  0.84438280  0.44289474    -0.07110
C732        C  0.57689209  0.86767486  0.46012506    -0.07860
C733        C  0.58915970  0.87914378  0.48809290    -0.02410
C734        C  0.61859665  0.86832200  0.49767332     0.04410
N735        N  0.63381046  0.88065966  0.52440096     0.66920
H736        H  0.65524792  0.83554030  0.48896299     0.15820
H737        H  0.55476337  0.87621399  0.45199620     0.15530
N738        N  0.57730825  0.83335286  0.41486590     0.74620
O739        O  0.64558562  0.86250540  0.54405803    -0.38830
O740        O  0.64128733  0.90889369  0.52486604    -0.38770
O741        O  0.58170478  0.80614783  0.40527905    -0.39480
O742        O  0.55828804  0.85030683  0.40053723    -0.39540
C743        C  0.47167879  0.61735305  0.66782540    -0.11820
C744        C  0.44789707  0.60227283  0.65174785     0.05180
C745        C  0.41753286  0.60151744  0.66426385    -0.07110
C746        C  0.41236053  0.61498765  0.69355001    -0.07860
C747        C  0.43662358  0.62865601  0.71032250    -0.02410
C748        C  0.46649582  0.63073085  0.69692324     0.04410
N749        N  0.49173554  0.64591104  0.71251864     0.66920
H750        H  0.49488184  0.61771085  0.65797663     0.15820
H751        H  0.38946417  0.61393822  0.70398966     0.15530
N752        N  0.39220565  0.58663100  0.64835461     0.74620
O753        O  0.51936549  0.63750558  0.70753359    -0.38830
O754        O  0.48689442  0.66963196  0.72887741    -0.38770
O755        O  0.39436277  0.57965039  0.62001536    -0.39480
O756        O  0.36662981  0.58220385  0.66209216    -0.39540
C757        C  0.46147144  0.67358040  0.46273820    -0.11820
C758        C  0.44666801  0.65737637  0.48709855     0.05180
C759        C  0.41467893  0.66308021  0.49257731    -0.07110
C760        C  0.39876945  0.68456002  0.47388936    -0.07860
C761        C  0.41412070  0.70127717  0.45046323    -0.02410
C762        C  0.44582354  0.69540751  0.44452371     0.04410
N763        N  0.46258654  0.71151541  0.42035885     0.66920
H764        H  0.48571233  0.66931289  0.45763477     0.15820
H765        H  0.37463030  0.68959448  0.47890273     0.15530
N766        N  0.39822314  0.64864789  0.51771411     0.74620
O767        O  0.49148524  0.71563740  0.42256338    -0.38830
O768        O  0.44923790  0.71933658  0.39557739    -0.38770
O769        O  0.40640657  0.65384932  0.54527313    -0.39480
O770        O  0.37204597  0.63655759  0.51289426    -0.39540
C771        C  0.60241596  0.67066152  0.42763190    -0.11820
C772        C  0.60925051  0.65654595  0.45594974     0.05180
C773        C  0.62706820  0.67257149  0.47813320    -0.07110
C774        C  0.63601161  0.70318794  0.47227712    -0.07860
C775        C  0.62833155  0.71769650  0.44439032    -0.02410
C776        C  0.61205733  0.70102224  0.42127122     0.04410
N777        N  0.60434823  0.71463713  0.39175464     0.66920
H778        H  0.58788651  0.65861148  0.41116513     0.15820
H779        H  0.64958273  0.71560175  0.48927496     0.15530
N780        N  0.63572517  0.65816507  0.50685700     0.74620
O781        O  0.60118118  0.69768751  0.36817391    -0.38830
O782        O  0.59785194  0.74302148  0.38958973    -0.38770
O783        O  0.64528707  0.63057637  0.50696728    -0.39480
O784        O  0.63809630  0.67409057  0.53123515    -0.39540
C785        C  0.67562831  0.48122208  0.60456932    -0.11820
C786        C  0.65454261  0.45648515  0.60281537     0.05180
C787        C  0.66183036  0.42787689  0.61671136    -0.07110
C788        C  0.69099424  0.42457256  0.63072115    -0.07860
C789        C  0.71272959  0.44904493  0.63149065    -0.02410
C790        C  0.70435813  0.47813312  0.61920233     0.04410
N791        N  0.72430029  0.50471429  0.62171376     0.66920
H792        H  0.66950096  0.50333708  0.59435637     0.15820
H793        H  0.69743449  0.40206190  0.63970122     0.15530
N794        N  0.64102202  0.40174273  0.61575462     0.74620
O795        O  0.72397768  0.52547848  0.60105954    -0.38830
O796        O  0.73983962  0.50916309  0.64602386    -0.38770
O797        O  0.62152985  0.39883802  0.59423411    -0.39480
O798        O  0.64336809  0.38030641  0.63556110    -0.39540
C799        C  0.52528980  0.11215157  0.67327974    -0.11820
C800        C  0.54241709  0.09562551  0.65104665     0.05180
C801        C  0.57522590  0.09558105  0.65270124    -0.07110
C802        C  0.58983270  0.11025437  0.67771296    -0.07860
C803        C  0.57265723  0.12523092  0.70095518    -0.02410
C804        C  0.53996169  0.12711956  0.69821075     0.04410
N805        N  0.52140914  0.14385651  0.72043372     0.66920
H806        H  0.50021054  0.11237951  0.67184570     0.15820
H807        H  0.61487334  0.10933084  0.67953385     0.15530
N808        N  0.59396885  0.08066539  0.62935806     0.74620
O809        O  0.49348237  0.13633144  0.72520032    -0.38830
O810        O  0.53177211  0.16803161  0.73307014    -0.38770
O811        O  0.58583465  0.08112772  0.60127944    -0.39480
O812        O  0.62028388  0.06987062  0.63616847    -0.39540
C813        C  0.37512205  0.94167979  0.89483933    -0.11820
C814        C  0.37838747  0.94836149  0.92655310     0.05180
C815        C  0.35122318  0.94936197  0.94530950    -0.07110
C816        C  0.32230318  0.94295811  0.93243527    -0.07860
C817        C  0.31887240  0.93749642  0.90063892    -0.02410
C818        C  0.34576036  0.93719604  0.88146502     0.04410
N819        N  0.34371288  0.93415604  0.84833311     0.66920
H820        H  0.39540019  0.94173406  0.87989202     0.15820
H821        H  0.30212117  0.94311602  0.94753545     0.15530
N822        N  0.35193174  0.95932179  0.97690266     0.74620
O823        O  0.32308530  0.94859439  0.83350052    -0.38830
O824        O  0.36471430  0.92012421  0.83345576    -0.38770
O825        O  0.35603623  0.98764815  0.98261299    -0.39480
O826        O  0.34151994  0.94181561  0.99799862    -0.39540
C827        C  0.53068949  0.92671070  0.85469644    -0.11820
C828        C  0.54997586  0.94337638  0.87488934     0.05180
C829        C  0.58256778  0.93933008  0.87242655    -0.07110
C830        C  0.59488288  0.92113468  0.84847040    -0.07860
C831        C  0.57569284  0.90597670  0.82728375    -0.02410
C832        C  0.54307476  0.90776284  0.83107250     0.04410
N833        N  0.52236937  0.89061199  0.81137351     0.66920
H834        H  0.50576321  0.92904857  0.85687515     0.15820
H835        H  0.61984485  0.91931560  0.84591671     0.15530
N836        N  0.60355528  0.95332240  0.89402119     0.74620
O837        O  0.49441512  0.89883824  0.80863075    -0.38830
O838        O  0.53089744  0.86541019  0.79927708    -0.38770
O839        O  0.59892575  0.95041780  0.92282357    -0.39480
O840        O  0.62893869  0.96458564  0.88456772    -0.39540
C841        C  0.57603999  0.13169502  0.86976386    -0.11820
C842        C  0.58460803  0.10136340  0.87780119     0.05180
C843        C  0.59702139  0.08168394  0.85455731    -0.07110
C844        C  0.59966412  0.09257613  0.82394021    -0.07860
C845        C  0.59061011  0.12266622  0.81598648    -0.02410
C846        C  0.57845389  0.14250392  0.83909068     0.04410
N847        N  0.56743937  0.17310948  0.83163828     0.66920
H848        H  0.56552304  0.14649406  0.88713116     0.15820
H849        H  0.60988109  0.07782726  0.80633929     0.15530
N850        N  0.60766140  0.05095506  0.86170903     0.74620
O851        O  0.56674460  0.19387109  0.85217874    -0.38830
O852        O  0.55512060  0.17857519  0.80570400    -0.38770
O853        O  0.60467065  0.02946815  0.84216646    -0.39480
O854        O  0.62311567  0.04597460  0.88599578    -0.39540
C855        C  0.42644097  0.20868595  0.06922785    -0.11820
C856        C  0.39898380  0.21193053  0.08668313     0.05180
C857        C  0.38306753  0.18454489  0.09606620    -0.07110
C858        C  0.39695825  0.15549577  0.09111648    -0.07860
C859        C  0.42465620  0.15272721  0.07415548    -0.02410
C860        C  0.43810920  0.17971198  0.06127758     0.04410
N861        N  0.46074708  0.17816531  0.03686047     0.66920
H862        H  0.43917290  0.22867286  0.06101641     0.15820
H863        H  0.38515654  0.13479225  0.09908733     0.15530
N864        N  0.35204285  0.18545983  0.10839362     0.74620
O865        O  0.45323604  0.18635293  0.00981148    -0.38830
O866        O  0.48903167  0.17469223  0.04313864    -0.38770
O867        O  0.33194432  0.20266253  0.09597690    -0.39480
O868        O  0.34357002  0.16615361  0.12877741    -0.39540
C869        C  0.92174361  0.36728874  0.92409488    -0.11820
C870        C  0.91965831  0.37731041  0.95485892     0.05180
C871        C  0.90541429  0.35812938  0.97736558    -0.07110
C872        C  0.89520714  0.32861832  0.96909965    -0.07860
C873        C  0.89838903  0.31793937  0.93868666    -0.02410
C874        C  0.91129291  0.33768566  0.91561682     0.04410
N875        N  0.91588771  0.32748312  0.88417974     0.66920
H876        H  0.93370124  0.38158673  0.90715168     0.15820
H877        H  0.88466056  0.31382135  0.98655041     0.15530
N878        N  0.90185824  0.36814157  0.00889036     0.74620
O879        O  0.91409996  0.34662649  0.86209419    -0.38830
O880        O  0.92533292  0.30039900  0.87861613    -0.38770
O881        O  0.89091303  0.39461888  0.01451073    -0.39480
O882        O  0.90527012  0.34918518  0.03093918    -0.39540
C883        C  0.87031829  0.56597099  0.12754207    -0.11820
C884        C  0.88119587  0.58544067  0.10375134     0.05180
C885        C  0.86252973  0.61010113  0.09320236    -0.07110
C886        C  0.83284983  0.61389510  0.10608356    -0.07860
C887        C  0.82135711  0.59350338  0.12874364    -0.02410
C888        C  0.84042881  0.56951883  0.14023994     0.04410
N889        N  0.82975866  0.54820234  0.16382010     0.66920
H890        H  0.88460646  0.54670110  0.13491758     0.15820
H891        H  0.81819069  0.63258958  0.09799833     0.15530
N892        N  0.87302253  0.63082470  0.06905597     0.74620
O893        O  0.84203745  0.52178998  0.16630339    -0.38830
O894        O  0.80956563  0.55619248  0.18354951    -0.38770
O895        O  0.90161747  0.63550075  0.06462780    -0.39480
O896        O  0.85371920  0.64637376  0.05356669    -0.39540
C897        C  0.05302743  0.41671257  0.17371034    -0.11820
C898        C  0.07752987  0.42397610  0.15342449     0.05180
C899        C  0.10812016  0.41525344  0.16103634    -0.07110
C900        C  0.11335642  0.40156333  0.19023214    -0.07860
C901        C  0.08891330  0.39602672  0.21146374    -0.02410
C902        C  0.05814079  0.40227525  0.20226136     0.04410
N903        N  0.03191839  0.39417622  0.22144371     0.66920
H904        H  0.02950653  0.42274751  0.16726792     0.15820
H905        H  0.13699504  0.39686610  0.19714939     0.15530
N906        N  0.13407299  0.42092623  0.14048522     0.74620
O907        O  0.00774301  0.41066936  0.22118542    -0.38830
O908        O  0.03163193  0.36897746  0.23632257    -0.38770
O909        O  0.13286441  0.44143513  0.11963796    -0.39480
O910        O  0.15886546  0.40569977  0.14358450    -0.39540
C911        C  0.87263628  0.54308087  0.91447133    -0.11820
C912        C  0.87130982  0.54264924  0.94707122     0.05180
C913        C  0.84671967  0.55841585  0.96224574    -0.07110
C914        C  0.82503527  0.57482806  0.94476088    -0.07860
C915        C  0.82585322  0.57491416  0.91225644    -0.02410
C916        C  0.84998799  0.55871014  0.89676205     0.04410
N917        N  0.85138116  0.55691201  0.86345216     0.66920
H918        H  0.89120664  0.53084098  0.90273774     0.15820
H919        H  0.80650898  0.58689802  0.95678681     0.15530
N920        N  0.84229428  0.55669885  0.99528532     0.74620
O921        O  0.87723280  0.55417713  0.84981922    -0.38830
O922        O  0.82686020  0.55445415  0.84779772    -0.38770
O923        O  0.83399886  0.58043021  0.01020433    -0.39480
O924        O  0.84171050  0.53069281  0.00869257    -0.39540
C925        C  0.61111401  0.16435146  0.03833508    -0.11820
C926        C  0.58060596  0.15977181  0.04933117     0.05180
C927        C  0.56989327  0.17859190  0.07426128    -0.07110
C928        C  0.58886716  0.20192380  0.08595309    -0.07860
C929        C  0.61888487  0.20679838  0.07472213    -0.02410
C930        C  0.63067087  0.18736509  0.05096660     0.04410
N931        N  0.66184380  0.19070104  0.03911321     0.66920
H932        H  0.61972117  0.14998646  0.01962469     0.15820
H933        H  0.58007150  0.21641914  0.10453407     0.15530
N934        N  0.53974190  0.17507518  0.08806271     0.74620
O935        O  0.67522450  0.16810771  0.02621374    -0.38830
O936        O  0.67568931  0.21641293  0.04002460    -0.38770
O937        O  0.53424370  0.15161600  0.10470323    -0.39480
O938        O  0.52283227  0.19870715  0.09142756    -0.39540
C939        C  0.35305135  0.34154521  0.78049642    -0.11820
C940        C  0.37213602  0.34109970  0.75389286     0.05180
C941        C  0.36419559  0.32048925  0.72964261    -0.07110
C942        C  0.33667333  0.30289167  0.73210678    -0.07860
C943        C  0.31896144  0.30216452  0.75976729    -0.02410
C944        C  0.32917616  0.32035682  0.78499426     0.04410
N945        N  0.31770199  0.31589252  0.81607488     0.66920
H946        H  0.35764735  0.35736826  0.79925962     0.15820
H947        H  0.32989722  0.28880831  0.71259721     0.15530
N948        N  0.38437393  0.31556836  0.70347968     0.74620
O949        O  0.31611184  0.28894701  0.82736306    -0.38830
O950        O  0.31347652  0.33883892  0.83367458    -0.38770
O951        O  0.41308095  0.31167695  0.70760076    -0.39480
O952        O  0.37311060  0.31006966  0.67710232    -0.39540
C953        C  0.48238020  0.40436287  0.69569945    -0.11820
C954        C  0.45101617  0.41171393  0.70069940     0.05180
C955        C  0.43611033  0.43260438  0.68040662    -0.07110
C956        C  0.45351026  0.44640245  0.65638965    -0.07860
C957        C  0.48539931  0.44031949  0.65229851    -0.02410
C958        C  0.49963158  0.41803841  0.67159741     0.04410
N959        N  0.53178386  0.41016496  0.66827281     0.66920
H960        H  0.49371986  0.38809393  0.71109226     0.15820
H961        H  0.44235588  0.46338209  0.64166397     0.15530
N962        N  0.40412507  0.44143493  0.68464078     0.74620
O963        O  0.54907300  0.41002940  0.69179631    -0.38830
O964        O  0.54120147  0.39735689  0.64368757    -0.38770
O965        O  0.39248845  0.44374391  0.71147094    -0.39480
O966        O  0.38830377  0.45017746  0.66168021    -0.39540
C967        C  0.69736200  0.59134217  0.09409486    -0.11820
C968        C  0.70774064  0.57515219  0.12008600     0.05180
C969        C  0.69482759  0.54582532  0.12725768    -0.07110
C970        C  0.67161832  0.53366346  0.10770758    -0.07860
C971        C  0.66148563  0.54977550  0.08116336    -0.02410
C972        C  0.67519468  0.57888822  0.07428264     0.04410
N973        N  0.66869741  0.59533915  0.04618955     0.66920
H974        H  0.70789310  0.61339725  0.08818364     0.15820
H975        H  0.66137555  0.51143763  0.11326145     0.15530
N976        N  0.70478100  0.52818738  0.15387143     0.74620
O977        O  0.66120985  0.62354992  0.04733495    -0.38830
O978        O  0.67667070  0.58372631  0.02051683    -0.38770
O979        O  0.71726456  0.54128019  0.17676379    -0.39480
O980        O  0.69944620  0.49949183  0.15542036    -0.39540
C981        C  0.66283382  0.56918912  0.89923237    -0.11820
C982        C  0.65185818  0.58527867  0.92533419     0.05180
C983        C  0.67101338  0.60749799  0.93976521    -0.07110
C984        C  0.70132187  0.61172867  0.92837442    -0.07860
C985        C  0.71253080  0.59487241  0.90292776    -0.02410
C986        C  0.69297577  0.57361873  0.88762879     0.04410
N987        N  0.70323697  0.55584448  0.86112057     0.66920
H988        H  0.64797964  0.55215490  0.88842236     0.15820
H989        H  0.71641138  0.62854113  0.93919992     0.15530
N990        N  0.66003465  0.62641397  0.96509321     0.74620
O991        O  0.68914499  0.53136523  0.85369512    -0.38830
O992        O  0.72495319  0.56529257  0.84377372    -0.38770
O993        O  0.67905610  0.64126154  0.98151279    -0.39480
O994        O  0.63141527  0.63140661  0.96888749    -0.39540
C995        C  0.41863421  0.37821748  0.05397880    -0.11820
C996        C  0.44951197  0.37120537  0.04603641     0.05180
C997        C  0.46080690  0.34088034  0.05098026    -0.07110
C998        C  0.44121026  0.31889493  0.06473979    -0.07860
C999        C  0.41022911  0.32551381  0.07290360    -0.02410
C1000       C  0.39863034  0.35564530  0.06695041     0.04410
N1001       N  0.36672037  0.36348948  0.07280422     0.66920
H1002       H  0.40997557  0.40135910  0.04967021     0.15820
H1003       H  0.45068891  0.29621433  0.06970502     0.15530
N1004       N  0.49158818  0.33141471  0.04155045     0.74620
O1005       O  0.35943518  0.39075854  0.08034989    -0.38830
O1006       O  0.34544888  0.34433621  0.06695159    -0.38770
O1007       O  0.51428208  0.34979668  0.04270258    -0.39480
O1008       O  0.49660561  0.30365000  0.03395472    -0.39540
C1009       C  0.64621456  0.34350791  0.08711341    -0.11820
C1010       C  0.62536152  0.32011052  0.09582778     0.05180
C1011       C  0.59360646  0.32737949  0.09979032    -0.07110
C1012       C  0.58347011  0.35763486  0.09355063    -0.07860
C1013       C  0.60415701  0.38091663  0.08365595    -0.02410
C1014       C  0.63603943  0.37355685  0.08049323     0.04410
N1015       N  0.65809097  0.39530428  0.06826095     0.66920
H1016       H  0.67051770  0.33791335  0.08377073     0.15820
H1017       H  0.55907261  0.36300686  0.09637193     0.15530
N1018       N  0.57152419  0.30469961  0.11053983     0.74620
O1019       O  0.68369988  0.39903259  0.08178427    -0.38830
O1020       O  0.65491758  0.40552784  0.04100794    -0.38770
O1021       O  0.57893022  0.28527693  0.13112630    -0.39480
O1022       O  0.54360900  0.30611761  0.10195768    -0.39540
C1023       C  0.45601696  0.59414980  0.87513079    -0.11820
C1024       C  0.48627218  0.58323931  0.87016267     0.05180
C1025       C  0.50215051  0.59184802  0.84267167    -0.07110
C1026       C  0.48709589  0.61088743  0.82091173    -0.07860
C1027       C  0.45586970  0.62001835  0.82471789    -0.02410
C1028       C  0.44049277  0.61187985  0.85277236     0.04410
N1029       N  0.40862130  0.61954369  0.85843772     0.66920
H1030       H  0.44369112  0.58754461  0.89611428     0.15820
H1031       H  0.49951287  0.61732086  0.79996384     0.15530
N1032       N  0.53237107  0.57968139  0.83521717     0.74620
O1033       O  0.38791874  0.61043944  0.84001107    -0.38830
O1034       O  0.40070471  0.63132469  0.88405409    -0.38770
O1035       O  0.53841836  0.55148532  0.83998020    -0.39480
O1036       O  0.55121473  0.59564957  0.81936880    -0.39540
C1037       C  0.42577753  0.42027048  0.86906588    -0.11820
C1038       C  0.45681262  0.42536385  0.87655719     0.05180
C1039       C  0.47999372  0.42163862  0.85361137    -0.07110
C1040       C  0.47183960  0.41245077  0.82371870    -0.07860
C1041       C  0.44085484  0.40697129  0.81605793    -0.02410
C1042       C  0.41735187  0.41171772  0.83886497     0.04410
N1043       N  0.38494650  0.40955215  0.83142867     0.66920
H1044       H  0.40796122  0.42442421  0.88639607     0.15820
H1045       H  0.48997556  0.40860971  0.80664570     0.15530
N1046       N  0.51208870  0.42604027  0.86062014     0.74620
O1047       O  0.36574765  0.40003739  0.85152285    -0.38830
O1048       O  0.37491714  0.42083934  0.80638106    -0.38770
O1049       O  0.52484723  0.40867975  0.88034148    -0.39480
O1050       O  0.52882532  0.44244873  0.84296245    -0.39540
C1051       C  0.34415881  0.04638429  0.45982391    -0.11820
C1052       C  0.37153251  0.03814417  0.44406613     0.05180
C1053       C  0.37558620  0.04809749  0.41289113    -0.07110
C1054       C  0.35151978  0.06482605  0.39836597    -0.07860
C1055       C  0.32410015  0.07288852  0.41431811    -0.02410
C1056       C  0.32111340  0.06438249  0.44593992     0.04410
N1057       N  0.29592237  0.07538174  0.46496099     0.66920
H1058       H  0.34129085  0.03995732  0.48399586     0.15820
H1059       H  0.35425447  0.07151523  0.37427878     0.15530
N1060       N  0.40424859  0.04359747  0.39622491     0.74620
O1061       O  0.28439590  0.05816615  0.48574084    -0.38830
O1062       O  0.28800091  0.10348995  0.46390098    -0.38770
O1063       O  0.41798127  0.01784628  0.39677697    -0.39480
O1064       O  0.41383150  0.06419619  0.37767920    -0.40660
C1065       C  0.93828285  0.95007539  0.35675291    -0.11820
C1066       C  0.94247834  0.92907919  0.38145246     0.05180
C1067       C  0.93987569  0.89700162  0.37538500    -0.07110
C1068       C  0.93608922  0.88689878  0.34481619    -0.07860
C1069       C  0.93305462  0.90787931  0.32008632    -0.02410
C1070       C  0.93299943  0.93996519  0.32635129     0.04410
N1071       N  0.92696667  0.96251701  0.30252310     0.66920
H1072       H  0.93929695  0.97474090  0.36103462     0.15820
H1073       H  0.93537674  0.86224588  0.34033607     0.15530
N1074       N  0.94113331  0.87429882  0.39968283     0.74620
O1075       O  0.90563134  0.95805704  0.28311137    -0.38830
O1076       O  0.94018290  0.98857803  0.30321185    -0.38770
O1077       O  0.92170961  0.87538326  0.42168278    -0.39480
O1078       O  0.95727309  0.85017724  0.39614635    -0.39540
C1079       C  0.09837865  0.86617215  0.60558172    -0.11820
C1080       C  0.10801475  0.88017232  0.57783686     0.05180
C1081       C  0.12676706  0.86341954  0.55668739    -0.07110
C1082       C  0.13539667  0.83301387  0.56392448    -0.07860
C1083       C  0.12590385  0.81901358  0.59169612    -0.02410
C1084       C  0.10700448  0.83567438  0.61282004     0.04410
N1085       N  0.09511672  0.82159752  0.64074924     0.66920
H1086       H  0.08297771  0.87866638  0.62106471     0.15820
H1087       H  0.14982756  0.82016684  0.54780858     0.15530
N1088       N  0.13588294  0.87616673  0.52715428     0.74620
O1089       O  0.08984367  0.83795531  0.66441895    -0.38830
O1090       O  0.08622923  0.79376520  0.64071784    -0.38770
O1091       O  0.14709906  0.90308200  0.52537938    -0.39480
O1092       O  0.13662350  0.85910533  0.50343388    -0.39540
C1093       C  0.20678697  0.04849100  0.60860537    -0.11820
C1094       C  0.20363163  0.08015794  0.61550845     0.05180
C1095       C  0.17627941  0.09566618  0.60628463    -0.07110
C1096       C  0.15350800  0.07946280  0.58980154    -0.07860
C1097       C  0.15747049  0.04829799  0.58142666    -0.02410
C1098       C  0.18418942  0.03243852  0.59170953     0.04410
N1099       N  0.18998991  0.00086143  0.58335925     0.66920
H1100       H  0.22744359  0.03620436  0.61582625     0.15820
H1101       H  0.13323150  0.09191276  0.58182195     0.15530
N1102       N  0.17222016  0.12828207  0.61104094     0.74620
O1103       O  0.21568870  0.99353963  0.57126137    -0.38830
O1104       O  0.17233349  0.97975721  0.59339131    -0.38770
O1105       O  0.19334629  0.14693517  0.60303855    -0.39480
O1106       O  0.14585370  0.13877501  0.61836315    -0.39540
C1107       C  0.15777508  0.07594560  0.39309691    -0.11820
C1108       C  0.14967739  0.08474847  0.42345190     0.05180
C1109       C  0.17229541  0.09883037  0.44239331    -0.07110
C1110       C  0.20253639  0.10246752  0.43100271    -0.07860
C1111       C  0.21083560  0.09290166  0.40106452    -0.02410
C1112       C  0.18818708  0.07951540  0.38145743     0.04410
N1113       N  0.19548712  0.06811232  0.35069168     0.66920
H1114       H  0.14052760  0.06465782  0.37889897     0.15820
H1115       H  0.21982100  0.11332576  0.44554225     0.15530
N1116       N  0.16496959  0.10975754  0.47305365     0.74620
O1117       O  0.17574660  0.05250633  0.33589348    -0.38830
O1118       O  0.22155563  0.07290458  0.33812521    -0.38770
O1119       O  0.18485382  0.10798813  0.49436752    -0.39480
O1120       O  0.14001771  0.12424742  0.47806367    -0.39540
C1121       C  0.92903116  0.84146495  0.59409913    -0.11820
C1122       C  0.90809378  0.82567409  0.57524573     0.05180
C1123       C  0.90600650  0.83364671  0.54343261    -0.07110
C1124       C  0.92596130  0.85668817  0.53128591    -0.07860
C1125       C  0.94806283  0.87169643  0.54992742    -0.02410
C1126       C  0.94913988  0.86387993  0.58193595     0.04410
N1127       N  0.97122240  0.87746884  0.60246932     0.66920
H1128       H  0.93093926  0.83513461  0.61836672     0.15820
H1129       H  0.92451005  0.86262306  0.50692489     0.15530
N1130       N  0.88408934  0.81868820  0.52323705     0.74620
O1131       O  0.96180367  0.89400993  0.62468431    -0.38830
O1132       O  0.99868538  0.86734227  0.60273306    -0.38770
O1133       O  0.85937582  0.80705891  0.53394842    -0.39480
O1134       O  0.88812468  0.81922546  0.49420918    -0.39540
C1135       C  0.07533456  0.58678659  0.20503618    -0.11820
C1136       C  0.07725321  0.61912362  0.20291103     0.05180
C1137       C  0.06314287  0.63426834  0.17740752    -0.07110
C1138       C  0.04755007  0.61656556  0.15489895    -0.07860
C1139       C  0.04488336  0.58427830  0.15772993    -0.02410
C1140       C  0.05865560  0.56936250  0.18354522     0.04410
N1141       N  0.05437998  0.53687165  0.18948108     0.66920
H1142       H  0.08585503  0.57497249  0.22452212     0.15820
H1143       H  0.03689318  0.62815155  0.13536675     0.15530
N1144       N  0.06317357  0.66741274  0.17460185     0.74620
O1145       O  0.07656951  0.52083371  0.19971988    -0.38830
O1146       O  0.02743627  0.52541365  0.18944371    -0.38770
O1147       O  0.06498317  0.67991893  0.14815849    -0.39480
O1148       O  0.05727053  0.68410659  0.19787798    -0.39540
C1149       C  0.70191974  0.45178758  0.44008461    -0.11820
C1150       C  0.70327679  0.45563076  0.40781022     0.05180
C1151       C  0.68288665  0.47724800  0.39363601    -0.07110
C1152       C  0.66152211  0.49375797  0.41236714    -0.07860
C1153       C  0.66051611  0.49001480  0.44477637    -0.02410
C1154       C  0.68185496  0.46925320  0.45870799     0.04410
N1155       N  0.68525119  0.46717630  0.49178748     0.66920
H1156       H  0.71820038  0.43625356  0.45121909     0.15820
H1157       H  0.64552685  0.50971118  0.40148954     0.15530
N1158       N  0.68433873  0.48410478  0.36094079     0.74620
O1159       O  0.68903556  0.44112629  0.50453202    -0.38830
O1160       O  0.69020921  0.49137063  0.50735234    -0.38770
O1161       O  0.68950279  0.46308649  0.34135647    -0.39480
O1162       O  0.67722269  0.51075913  0.35125955    -0.39540
C1163       C  0.11806924  0.65506090  0.54448826    -0.11820
C1164       C  0.08707829  0.65956053  0.53572636     0.05180
C1165       C  0.07248792  0.68806852  0.54255179    -0.07110
C1166       C  0.08826921  0.71016777  0.56005062    -0.07860
C1167       C  0.11934186  0.70613007  0.56897418    -0.02410
C1168       C  0.13465337  0.67824659  0.56047770     0.04410
N1169       N  0.16693612  0.67333125  0.56699205     0.66920
H1170       H  0.12940597  0.63342017  0.53879652     0.15820
H1171       H  0.07605067  0.73112606  0.56637717     0.15530
N1172       N  0.04207750  0.69543907  0.53090947     0.74620
O1173       O  0.17668870  0.64651723  0.57333043    -0.38830
O1174       O  0.18632822  0.69483391  0.56272084    -0.38770
O1175       O  0.03459926  0.68776207  0.50372129    -0.39480
O1176       O  0.02448402  0.71350437  0.54580076    -0.39540
C1177       C  0.90227557  0.65685269  0.58227395    -0.11820
C1178       C  0.93407425  0.65341214  0.58798512     0.05180
C1179       C  0.95112271  0.67880656  0.59977028    -0.07110
C1180       C  0.93661208  0.70772010  0.60237943    -0.07860
C1181       C  0.90545760  0.71173996  0.59434231    -0.02410
C1182       C  0.88774230  0.68582615  0.58500663     0.04410
N1183       N  0.85574128  0.68884220  0.57621774     0.66920
H1184       H  0.88936625  0.63763567  0.57269309     0.15820
H1185       H  0.94961789  0.72732659  0.61099610     0.15530
N1186       N  0.98316497  0.67564151  0.60867110     0.74620
O1187       O  0.84675349  0.71211971  0.56097735    -0.38830
O1188       O  0.83718828  0.66660259  0.58044367    -0.38770
O1189       O  0.00064120  0.69906205  0.60967996    -0.39480
O1190       O  0.99330801  0.65006836  0.61856127    -0.39540
C1191       C  0.05796451  0.46012614  0.34834666    -0.11820
C1192       C  0.04109760  0.44407892  0.37141612     0.05180
C1193       C  0.04275426  0.41132782  0.37186016    -0.07110
C1194       C  0.06067868  0.39578909  0.34928613    -0.07860
C1195       C  0.07673792  0.41207358  0.32593620    -0.02410
C1196       C  0.07593439  0.44476363  0.32601333     0.04410
N1197       N  0.09363538  0.46276726  0.30400385     0.66920
H1198       H  0.05752225  0.48518146  0.34778145     0.15820
H1199       H  0.06111979  0.37071721  0.34928612     0.15530
N1200       N  0.02685755  0.39340368  0.39498060     0.74620
O1201       O  0.08386292  0.48884769  0.29511251    -0.38830
O1202       O  0.12050103  0.45426905  0.29591198    -0.38770
O1203       O  0.99760162  0.39252649  0.39515308    -0.39480
O1204       O  0.04166748  0.37346711  0.41038301    -0.39540
C1205       C  0.05261715  0.61033867  0.35374577    -0.11820
C1206       C  0.07683359  0.60436249  0.37446237     0.05180
C1207       C  0.10692676  0.61555059  0.36791379    -0.07110
C1208       C  0.11230982  0.63005915  0.33909695    -0.07860
C1209       C  0.08832761  0.63417178  0.31732220    -0.02410
C1210       C  0.05771135  0.62579186  0.32571612     0.04410
N1211       N  0.03161560  0.63278344  0.30624411     0.66920
H1212       H  0.02930765  0.60275714  0.35956355     0.15820
H1213       H  0.13582716  0.63646548  0.33291319     0.15530
N1214       N  0.13234116  0.61146669  0.38912955     0.74620
O1215       O  0.00857947  0.61475798  0.30547458    -0.38830
O1216       O  0.03024123  0.65827829  0.29195520    -0.38770
O1217       O  0.13276368  0.58921580  0.40813832    -0.39480
O1218       O  0.15530320  0.62958677  0.38805809    -0.39540
C1219       C  0.86767757  0.45745309  0.57967871    -0.11820
C1220       C  0.87409680  0.48846007  0.58742826     0.05180
C1221       C  0.85758396  0.50206711  0.61233433    -0.07110
C1222       C  0.83551815  0.48435647  0.62870495    -0.07860
C1223       C  0.82839724  0.45377555  0.62024386    -0.02410
C1224       C  0.84483979  0.43994718  0.59533417     0.04410
N1225       N  0.83790240  0.40914995  0.58445045     0.66920
H1226       H  0.88032250  0.44685134  0.56069538     0.15820
H1227       H  0.82217536  0.49526352  0.64705256     0.15530
N1228       N  0.86078149  0.53431575  0.61970095     0.74620
O1229       O  0.84499369  0.40135577  0.55710202    -0.38830
O1230       O  0.82667175  0.38891293  0.60240574    -0.38770
O1231       O  0.85909625  0.55441797  0.59847558    -0.39480
O1232       O  0.85949065  0.54299402  0.64761278    -0.39540
C1233       C  0.84094756  0.44382964  0.38455442    -0.11820
C1234       C  0.81646655  0.43333354  0.40341909     0.05180
C1235       C  0.82174277  0.42743669  0.43518366    -0.07110
C1236       C  0.85070336  0.43471393  0.44772698    -0.07860
C1237       C  0.87458397  0.44755336  0.42947381    -0.02410
C1238       C  0.86989035  0.45148883  0.39723687     0.04410
N1239       N  0.89289056  0.46557100  0.37752679     0.66920
H1240       H  0.83682463  0.44805936  0.36013634     0.15820
H1241       H  0.85442287  0.43118539  0.47232637     0.15530
N1242       N  0.79807080  0.41434884  0.45498560     0.74620
O1243       O  0.89686492  0.45566138  0.35027474    -0.38830
O1244       O  0.90493673  0.49107021  0.38501034    -0.38770
O1245       O  0.77967869  0.39411723  0.44475799    -0.39480
O1246       O  0.79757263  0.42050513  0.48359704    -0.39540
C1247       C  0.31686639  0.96927626  0.08933080    -0.11820
C1248       C  0.32355551  0.95695529  0.11894251     0.05180
C1249       C  0.35460773  0.95940002  0.12971161    -0.07110
C1250       C  0.37753581  0.97267389  0.11033654    -0.07860
C1251       C  0.36988979  0.98577795  0.08160748    -0.02410
C1252       C  0.33886922  0.98538816  0.07168203     0.04410
N1253       N  0.32912929  0.00170489  0.04417060     0.66920
H1254       H  0.29401594  0.96672107  0.07951005     0.15820
H1255       H  0.40141421  0.97343548  0.11804734     0.15530
N1256       N  0.36331886  0.94961865  0.16024043     0.74620
O1257       O  0.30463236  0.99381505  0.03035698    -0.38830
O1258       O  0.34200714  0.02684400  0.03648790    -0.38770
O1259       O  0.38835607  0.93502663  0.16424387    -0.39480
O1260       O  0.34825258  0.95900725  0.18357693    -0.39540
C1261       C  0.93511743  0.10968259  0.34950032    -0.11820
C1262       C  0.95340847  0.12092549  0.32489752     0.05180
C1263       C  0.98592960  0.11578071  0.32550154    -0.07110
C1264       C  0.99875659  0.09789350  0.34960399    -0.07860
C1265       C  0.98012536  0.08557332  0.37345445    -0.02410
C1266       C  0.94812221  0.09260084  0.37379216     0.04410
N1267       N  0.92849923  0.08275000  0.39882050     0.66920
H1268       H  0.91029651  0.11362390  0.34958313     0.15820
H1269       H  0.02340991  0.09305346  0.34938558     0.15530
N1270       N  0.00620488  0.12856262  0.30211826     0.74620
O1271       O  0.93284560  0.09313848  0.42577669    -0.38830
O1272       O  0.90509622  0.06608731  0.39352316    -0.38770
O1273       O  0.00133750  0.15528259  0.29128676    -0.39480
O1274       O  0.03074712  0.11450765  0.29445949    -0.39540
C1275       C  0.21318047  0.26166173  0.87249189    -0.11820
C1276       C  0.18756639  0.28173393  0.87293815     0.05180
C1277       C  0.18227835  0.30118335  0.84705404    -0.07110
C1278       C  0.20109591  0.29807275  0.82047743    -0.07860
C1279       C  0.22435307  0.27542333  0.81912014    -0.02410
C1280       C  0.23119941  0.25788702  0.84583945     0.04410
N1281       N  0.25614470  0.23593112  0.84630797     0.66920
H1282       H  0.21809803  0.24731952  0.89254601     0.15820
H1283       H  0.19656654  0.31228625  0.80026913     0.15530
N1284       N  0.15725355  0.32299104  0.84664336     0.74620
O1285       O  0.27630500  0.23756688  0.86734047    -0.38830
O1286       O  0.25421953  0.21146135  0.83054345    -0.38770
O1287       O  0.16207653  0.35037285  0.83756690    -0.39480
O1288       O  0.12979122  0.31411896  0.85169242    -0.39540
C1289       C  0.11334315  0.37172887  0.98634958    -0.11820
C1290       C  0.08105061  0.36853101  0.99004325     0.05180
C1291       C  0.06623390  0.34232834  0.97720502    -0.07110
C1292       C  0.08363906  0.32086248  0.96033884    -0.07860
C1293       C  0.11597428  0.32337756  0.95725863    -0.02410
C1294       C  0.13113171  0.34927731  0.97047154     0.04410
N1295       N  0.16429502  0.35273696  0.96902323     0.66920
H1296       H  0.12485318  0.39162818  0.99627904     0.15820
H1297       H  0.07175461  0.30121183  0.95032229     0.15530
N1298       N  0.03386449  0.33610159  0.98245283     0.74620
O1299       O  0.17622546  0.37939634  0.96775428    -0.38830
O1300       O  0.18179055  0.32961163  0.97269245    -0.38770
O1301       O  0.01746678  0.32533559  0.96085020    -0.39480
O1302       O  0.02298145  0.33642319  0.00970447    -0.39540
C1303       C  0.18278629  0.93549728  0.92177574    -0.11820
C1304       C  0.20375348  0.95452707  0.90571522     0.05180
C1305       C  0.19966634  0.98706300  0.90671766    -0.07110
C1306       C  0.17606734  0.99956574  0.92574656    -0.07860
C1307       C  0.15600689  0.98044070  0.94308735    -0.02410
C1308       C  0.15873463  0.94788278  0.93985937     0.04410
N1309       N  0.13717910  0.92697924  0.95443851     0.66920
H1310       H  0.18543260  0.91058685  0.92059868     0.15820
H1311       H  0.17367306  0.02445085  0.92743842     0.15530
N1312       N  0.21885126  0.00756479  0.88846344     0.74620
O1313       O  0.10836732  0.93114469  0.95143230    -0.38830
O1314       O  0.14672085  0.90203191  0.96632861    -0.38770
O1315       O  0.22944342  0.99904428  0.86249040    -0.39480
O1316       O  0.22244576  0.03538229  0.89656982    -0.39540
C1317       C  0.15476241  0.94919372  0.13505600    -0.11820
C1318       C  0.15050566  0.94753937  0.10276332     0.05180
C1319       C  0.17646410  0.94141257  0.08348857    -0.07110
C1320       C  0.20583502  0.93847307  0.09657088    -0.07860
C1321       C  0.21008787  0.94077977  0.12864002    -0.02410
C1322       C  0.18430234  0.94618388  0.14829729     0.04410
N1323       N  0.18779655  0.95001012  0.18129780     0.66920
H1324       H  0.13524920  0.95463158  0.15000504     0.15820
H1325       H  0.22547593  0.93342552  0.08159058     0.15530
N1326       N  0.17346519  0.93777553  0.05063034     0.74620
O1327       O  0.16533937  0.94440149  0.19938404    -0.38830
O1328       O  0.21206983  0.96199808  0.19226018    -0.38770
O1329       O  0.18923996  0.95446443  0.03236781    -0.39480
O1330       O  0.15760715  0.91574589  0.03992967    -0.39540
C1331       C  0.90315932  0.19323588  0.98102318    -0.11820
C1332       C  0.91125105  0.20423935  0.95141268     0.05180
C1333       C  0.93600572  0.19028193  0.93509823    -0.07110
C1334       C  0.95238615  0.16607982  0.94918447    -0.07860
C1335       C  0.94524768  0.15545666  0.97936399    -0.02410
C1336       C  0.91940406  0.16863399  0.99498413     0.04410
N1337       N  0.90868715  0.15694090  0.02434023     0.66920
H1338       H  0.88364508  0.20355285  0.99312027     0.15820
H1339       H  0.97184172  0.15630347  0.93663181     0.15530
N1340       N  0.94551155  0.20079615  0.90472115     0.74620
O1341       O  0.89934340  0.17546383  0.04497062    -0.38830
O1342       O  0.90299904  0.12844104  0.02745498    -0.38770
O1343       O  0.94462859  0.22915705  0.89770710    -0.39480
O1344       O  0.95798450  0.18215186  0.88591031    -0.39540
C1345       C  0.09221005  0.20531863  0.93741419    -0.11820
C1346       C  0.12428335  0.21026922  0.93682796     0.05180
C1347       C  0.14458600  0.18461014  0.93904178    -0.07110
C1348       C  0.13207614  0.15475337  0.94237285    -0.07860
C1349       C  0.09985830  0.14982592  0.94404058    -0.02410
C1350       C  0.07973626  0.17560218  0.94051263     0.04410
N1351       N  0.04663059  0.17220410  0.93961526     0.66920
H1352       H  0.07660776  0.22476467  0.93445635     0.15820
H1353       H  0.14778686  0.13545360  0.94548941     0.15530
N1354       N  0.17775313  0.18845125  0.93936861     0.74620
O1355       O  0.02947858  0.19087178  0.95428012    -0.38830
O1356       O  0.03451435  0.15386114  0.92044159    -0.38770
O1357       O  0.18987876  0.21097856  0.95339941    -0.39480
O1358       O  0.19515128  0.16765663  0.92834254    -0.39540
C1359       C  0.93764704  0.92035933  0.18109924    -0.11820
C1360       C  0.95625759  0.90961746  0.20544601     0.05180
C1361       C  0.98871189  0.91479717  0.20407280    -0.07110
C1362       C  0.00118828  0.93244412  0.17947886    -0.07860
C1363       C  0.98224056  0.94438345  0.15590980    -0.02410
C1364       C  0.95022396  0.93708702  0.15614532     0.04410
N1365       N  0.93022090  0.94617983  0.13115939     0.66920
H1366       H  0.91288966  0.91607506  0.18171678     0.15820
H1367       H  0.02580424  0.93747149  0.17909801     0.15530
N1368       N  0.00923972  0.90223990  0.22712187     0.74620
O1369       O  0.93886658  0.94258220  0.10336956    -0.38830
O1370       O  0.90254638  0.95409420  0.13666942    -0.38770
O1371       O  0.00410963  0.87590541  0.23881647    -0.39480
O1372       O  0.03429254  0.91590593  0.23345061    -0.39540
C1373       C  0.94177575  0.13228562  0.15470906    -0.11820
C1374       C  0.94490298  0.10018575  0.15046638     0.05180
C1375       C  0.94135275  0.08049341  0.17664099    -0.07110
C1376       C  0.93527646  0.09311364  0.20583769    -0.07860
C1377       C  0.93363495  0.12517677  0.21027261    -0.02410
C1378       C  0.93698380  0.14508560  0.18428228     0.04410
N1379       N  0.93749224  0.17819551  0.18759165     0.66920
H1380       H  0.94510423  0.14778652  0.13519288     0.15820
H1381       H  0.93230757  0.07757076  0.22540273     0.15530
N1382       N  0.94514268  0.04767593  0.17451997     0.74620
O1383       O  0.95230395  0.19054787  0.20948862    -0.38830
O1384       O  0.92651912  0.19524062  0.16651462    -0.38770
O1385       O  0.97180029  0.03608657  0.17780361    -0.39480
O1386       O  0.92164440  0.03034992  0.17633093    -0.39540
C1387       C  0.19481142  0.75864184  0.71255241    -0.11820
C1388       C  0.22680046  0.75470967  0.70725444     0.05180
C1389       C  0.23694528  0.74492680  0.67746473    -0.07110
C1390       C  0.21496967  0.74017135  0.65394820    -0.07860
C1391       C  0.18340459  0.74629260  0.65893856    -0.02410
C1392       C  0.17310034  0.75512729  0.68877204     0.04410
N1393       N  0.14092086  0.76175439  0.69496018     0.66920
H1394       H  0.18659237  0.76500833  0.73545171     0.15820
H1395       H  0.22290170  0.73443244  0.63076322     0.15530
N1396       N  0.26930058  0.74219873  0.66976410     0.74620
O1397       O  0.11981153  0.74679972  0.68145535    -0.38830
O1398       O  0.13345086  0.78139476  0.71531227    -0.38770
O1399       O  0.27835055  0.72116272  0.65157051    -0.39480
O1400       O  0.28806395  0.76325367  0.67733583    -0.39540
C1401       C  0.25506015  0.84993039  0.78570580    -0.11820
C1402       C  0.25458005  0.82006049  0.79854403     0.05180
C1403       C  0.24978131  0.81628440  0.83082977    -0.07110
C1404       C  0.24734669  0.84262116  0.84960795    -0.07860
C1405       C  0.24899806  0.87243373  0.83690553    -0.02410
C1406       C  0.25233514  0.87633748  0.80447245     0.04410
N1407       N  0.25422531  0.90662258  0.79042705     0.66920
H1408       H  0.25855978  0.85262916  0.76094015     0.15820
H1409       H  0.24485464  0.83993621  0.87449888     0.15530
N1410       N  0.24751564  0.78608663  0.84486430     0.74620
O1411       O  0.26752101  0.91016387  0.76448558    -0.38830
O1412       O  0.24059566  0.92950236  0.80250430    -0.38770
O1413       O  0.25638207  0.78187921  0.87241013    -0.39480
O1414       O  0.23397777  0.76428284  0.83098040    -0.39540
C1415       C  0.34847530  0.74178542  0.77886687    -0.11820
C1416       C  0.31953115  0.72773728  0.77350315     0.05180
C1417       C  0.31742429  0.69508260  0.77386971    -0.07110
C1418       C  0.34446135  0.67753477  0.77764813    -0.07860
C1419       C  0.37347577  0.69157728  0.78172006    -0.02410
C1420       C  0.37557697  0.72417966  0.78315689     0.04410
N1421       N  0.40481688  0.73975612  0.78759265     0.66920
H1422       H  0.35009450  0.76679611  0.77878041     0.15820
H1423       H  0.34306672  0.65251266  0.77653776     0.15530
N1424       N  0.28825679  0.67935585  0.77041836     0.74620
O1425       O  0.40809543  0.76763121  0.77935217    -0.38830
O1426       O  0.42651142  0.72688363  0.80230785    -0.38770
O1427       O  0.28699762  0.65396342  0.75606034    -0.39480
O1428       O  0.26429436  0.68913529  0.78421428    -0.39540
C1429       C  0.68042416  0.18541707  0.72937279    -0.11820
C1430       C  0.65564768  0.19090155  0.74998107     0.05180
C1431       C  0.65765188  0.21577872  0.77115622    -0.07110
C1432       C  0.68533013  0.23251312  0.77313523    -0.07860
C1433       C  0.71064809  0.22604029  0.75371422    -0.02410
C1434       C  0.70802746  0.20285612  0.73073812     0.04410
N1435       N  0.73295399  0.19612826  0.70930829     0.66920
H1436       H  0.67883575  0.16635449  0.71319891     0.15820
H1437       H  0.68709195  0.25118309  0.78978501     0.15530
N1438       N  0.63178618  0.22445729  0.79054637     0.74620
O1439       O  0.72743193  0.18213574  0.68426923    -0.38830
O1440       O  0.76070745  0.20272091  0.71569307    -0.38770
O1441       O  0.63633099  0.23608689  0.81696691    -0.39480
O1442       O  0.60449383  0.22344418  0.78015113    -0.39540
C1443       C  0.78845986  0.24435733  0.84705801    -0.11820
C1444       C  0.80126502  0.25479497  0.81883127     0.05180
C1445       C  0.83355607  0.26041158  0.81684627    -0.07110
C1446       C  0.85172749  0.25704470  0.84339250    -0.07860
C1447       C  0.83878746  0.24761115  0.87176250    -0.02410
C1448       C  0.80680870  0.24049125  0.87365156     0.04410
N1449       N  0.79233376  0.23080009  0.90230958     0.66920
H1450       H  0.76375483  0.24003543  0.84861509     0.15820
H1451       H  0.87625562  0.26248879  0.84213947     0.15530
N1452       N  0.84827992  0.26962232  0.78825943     0.74620
O1453       O  0.76373340  0.23538701  0.90679166    -0.38830
O1454       O  0.80708914  0.21490083  0.92187026    -0.38770
O1455       O  0.87028036  0.28890676  0.78848662    -0.39480
O1456       O  0.84143410  0.25639953  0.76314175    -0.39540
C1457       C  0.79615266  0.33968086  0.72920909    -0.11820
C1458       C  0.76736783  0.32422933  0.73149002     0.05180
C1459       C  0.74152955  0.33746536  0.71642399    -0.07110
C1460       C  0.74598055  0.36260116  0.69657035    -0.07860
C1461       C  0.77417701  0.37921314  0.69526769    -0.02410
C1462       C  0.79936967  0.36788977  0.71297968     0.04410
N1463       N  0.82760292  0.38517239  0.71625958     0.66920
H1464       H  0.81622971  0.33034250  0.74089897     0.15820
H1465       H  0.72633910  0.36967360  0.68282326     0.15530
N1466       N  0.71030118  0.32727478  0.72253202     0.74620
O1467       O  0.82653117  0.41375588  0.72215230    -0.38830
O1468       O  0.85327957  0.37124892  0.71800616    -0.38770
O1469       O  0.70134565  0.32280047  0.75011985    -0.39480
O1470       O  0.69048129  0.32716774  0.70108866    -0.39540
C1471       C  0.74189212  0.27126699  0.17621305    -0.11820
C1472       C  0.73332210  0.25567003  0.20344164     0.05180
C1473       C  0.70798082  0.23482505  0.20317596    -0.07110
C1474       C  0.69057306  0.23192851  0.17582524    -0.07860
C1475       C  0.69778808  0.24937894  0.14924538    -0.02410
C1476       C  0.72470989  0.26812581  0.14892028     0.04410
N1477       N  0.73427996  0.28467569  0.12140697     0.66920
H1478       H  0.76194593  0.28639285  0.17646508     0.15820
H1479       H  0.66979446  0.21782567  0.17600597     0.15530
N1480       N  0.69880240  0.21742954  0.23034183     0.74620
O1481       O  0.75052733  0.30888094  0.12352465    -0.38830
O1482       O  0.72869847  0.27387916  0.09483504    -0.38770
O1483       O  0.70431828  0.22729642  0.25727697    -0.39480
O1484       O  0.68325584  0.19285077  0.22749355    -0.39540
C1485       C  0.84227152  0.18025214  0.28418709    -0.11820
C1486       C  0.87234479  0.19217769  0.28107097     0.05180
C1487       C  0.87675701  0.22434538  0.27644002    -0.07110
C1488       C  0.85047124  0.24343110  0.27358114    -0.07860
C1489       C  0.82035578  0.23116337  0.27498637    -0.02410
C1490       C  0.81613066  0.19933790  0.28140933     0.04410
N1491       N  0.78564115  0.18603156  0.28463339     0.66920
H1492       H  0.83920761  0.15560262  0.28775400     0.15820
H1493       H  0.85340570  0.26789456  0.26884855     0.15530
N1494       N  0.90731637  0.23775675  0.27328934     0.74620
O1495       O  0.78111137  0.15795761  0.27800851    -0.38830
O1496       O  0.76380826  0.20135064  0.29676823    -0.38770
O1497       O  0.93083663  0.22434232  0.28427425    -0.39480
O1498       O  0.91067923  0.26430415  0.26143050    -0.39540
C1499       C  0.74052913  0.32048339  0.32203049    -0.11820
C1500       C  0.75480768  0.32494260  0.29302492     0.05180
C1501       C  0.76442076  0.35501921  0.28399293    -0.07110
C1502       C  0.76024786  0.37949493  0.30497303    -0.07860
C1503       C  0.74744260  0.37476006  0.33459657    -0.02410
C1504       C  0.73712125  0.34487014  0.34327796     0.04410
N1505       N  0.72499149  0.33828360  0.37382937     0.66920
H1506       H  0.73368007  0.29730030  0.32885098     0.15820
H1507       H  0.76836256  0.40244051  0.29875990     0.15530
N1508       N  0.78003447  0.36103313  0.25485458     0.74620
O1509       O  0.70633268  0.31608502  0.37780281    -0.38830
O1510       O  0.73543061  0.35201030  0.39736833    -0.38770
O1511       O  0.77502045  0.34456734  0.23130163    -0.39480
O1512       O  0.79729630  0.38447949  0.25188800    -0.39540
C1513       C  0.31466665  0.26150013  0.15637690    -0.11820
C1514       C  0.34082906  0.28079020  0.15848840     0.05180
C1515       C  0.34523401  0.29830088  0.18577411    -0.07110
C1516       C  0.32455950  0.29415581  0.21088855    -0.07860
C1517       C  0.30015268  0.27265335  0.20950234    -0.02410
C1518       C  0.29455054  0.25673455  0.18151082     0.04410
N1519       N  0.26908985  0.23542896  0.17805802     0.66920
H1520       H  0.31076357  0.24868529  0.13519019     0.15820
H1521       H  0.32835734  0.30675906  0.23222525     0.15530
N1522       N  0.37088376  0.31924186  0.18905395     0.74620
O1523       O  0.25699931  0.23143570  0.15176888    -0.38830
O1524       O  0.26108904  0.21781600  0.20003938    -0.38770
O1525       O  0.36745183  0.34405717  0.20407783    -0.39480
O1526       O  0.39770119  0.31162373  0.18000253    -0.39540
C1527       C  0.27816297  0.15360358  0.31272133    -0.11820
C1528       C  0.28539377  0.15851748  0.34399324     0.05180
C1529       C  0.28911021  0.18914053  0.35501258    -0.07110
C1530       C  0.28454174  0.21398413  0.33438406    -0.07860
C1531       C  0.27591079  0.20898847  0.30350312    -0.02410
C1532       C  0.27266184  0.17841646  0.29251461     0.04410
N1533       N  0.26094567  0.17216205  0.26204411     0.66920
H1534       H  0.27397002  0.13021034  0.30473703     0.15820
H1535       H  0.28709166  0.23752716  0.34256374     0.15530
N1536       N  0.29585485  0.19554166  0.38707468     0.74620
O1537       O  0.27032386  0.14872048  0.24730658    -0.38830
O1538       O  0.23748685  0.18659700  0.25228596    -0.38770
O1539       O  0.31152391  0.17681289  0.40310107    -0.39480
O1540       O  0.28848077  0.22128112  0.39878884    -0.39540
C1541       C  0.21295229  0.33124788  0.27886619    -0.11820
C1542       C  0.20878806  0.29920715  0.27597963     0.05180
C1543       C  0.17850767  0.28666496  0.27799173    -0.07110
C1544       C  0.15320313  0.30672753  0.28197890    -0.07860
C1545       C  0.15728056  0.33887579  0.28321488    -0.02410
C1546       C  0.18765371  0.35149548  0.28211921     0.04410
N1547       N  0.19349035  0.38442261  0.28336958     0.66920
H1548       H  0.23624081  0.34060017  0.27749793     0.15820
H1549       H  0.12987839  0.29735753  0.28199979     0.15530
N1550       N  0.17272881  0.25412788  0.27398379     0.74620
O1551       O  0.21989696  0.39428202  0.29111920    -0.38830
O1552       O  0.17334872  0.40382559  0.27491942    -0.38770
O1553       O  0.15042027  0.24135294  0.28815422    -0.39480
O1554       O  0.18702714  0.23906855  0.25332326    -0.39540
C1555       C  0.75475912  0.71486621  0.19427043    -0.11820
C1556       C  0.75796197  0.71047719  0.22628945     0.05180
C1557       C  0.75650128  0.68021774  0.23886502    -0.07110
C1558       C  0.75123697  0.65520558  0.21904501    -0.07860
C1559       C  0.74917597  0.65945449  0.18698058    -0.02410
C1560       C  0.75071879  0.68963793  0.17423104     0.04410
N1561       N  0.74954764  0.69495130  0.14122189     0.66920
H1562       H  0.75592606  0.73811892  0.18487334     0.15820
H1563       H  0.75155978  0.63187441  0.22835332     0.15530
N1564       N  0.76305530  0.67410226  0.27097983     0.74620
O1565       O  0.76112999  0.71924542  0.12965571    -0.38830
O1566       O  0.73521961  0.67657785  0.12367754    -0.38770
O1567       O  0.75092432  0.65101964  0.28436403    -0.39480
O1568       O  0.78462564  0.68843829  0.28444727    -0.39540
C1569       C  0.85376749  0.78693665  0.25538092    -0.11820
C1570       C  0.82381547  0.79948319  0.25776057     0.05180
C1571       C  0.81959863  0.83181154  0.25512004    -0.07110
C1572       C  0.84563304  0.85085329  0.25172454    -0.07860
C1573       C  0.87563777  0.83848786  0.25047987    -0.02410
C1574       C  0.87996832  0.80605210  0.25184111     0.04410
N1575       N  0.91045287  0.79228828  0.25097726     0.66920
H1576       H  0.85671251  0.76208890  0.25709446     0.15820
H1577       H  0.84260421  0.87574807  0.25085832     0.15530
N1578       N  0.78923354  0.84565799  0.25594798     0.74620
O1579       O  0.91476381  0.76552868  0.26196474    -0.38830
O1580       O  0.93266599  0.80558106  0.23717504    -0.38770
O1581       O  0.78546096  0.87215034  0.26765677    -0.39480
O1582       O  0.76678867  0.83302380  0.24221266    -0.39540
C1583       C  0.68546593  0.75519982  0.35327765    -0.11820
C1584       C  0.68902662  0.78070946  0.37303143     0.05180
C1585       C  0.71189555  0.80300200  0.36543645    -0.07110
C1586       C  0.72977520  0.79910422  0.33817080    -0.07860
C1587       C  0.72873560  0.77136657  0.32074698    -0.02410
C1588       C  0.70703122  0.74851571  0.33022608     0.04410
N1589       N  0.70931732  0.71691525  0.32055677     0.66920
H1590       H  0.66761404  0.73810200  0.35790252     0.15820
H1591       H  0.74564671  0.81743870  0.33176102     0.15530
N1592       N  0.71877279  0.82836662  0.38576595     0.74620
O1593       O  0.73382485  0.70207507  0.32624641    -0.38830
O1594       O  0.68523869  0.70225404  0.31285550    -0.38770
O1595       O  0.72158760  0.82369636  0.41452796    -0.39480
O1596       O  0.72716250  0.85410826  0.37463223    -0.39540
C1597       C  0.29608703  0.82609279  0.21361908    -0.11820
C1598       C  0.27228892  0.82590060  0.23594530     0.05180
C1599       C  0.25226027  0.85153997  0.23858674    -0.07110
C1600       C  0.25591240  0.87625050  0.21791548    -0.07860
C1601       C  0.27780368  0.87547706  0.19351751    -0.02410
C1602       C  0.29874903  0.85027853  0.19188096     0.04410
N1603       N  0.32118513  0.84751992  0.16733034     0.66920
H1604       H  0.31121375  0.80614868  0.21162617     0.15820
H1605       H  0.24061327  0.89602815  0.22025120     0.15530
N1606       N  0.22749396  0.85244772  0.26120078     0.74620
O1607       O  0.34798442  0.83733298  0.17311372    -0.38830
O1608       O  0.31300975  0.85072235  0.13944681    -0.38770
O1609       O  0.23059016  0.83992553  0.28748290    -0.39480
O1610       O  0.20303478  0.86750978  0.25566060    -0.39540
C1611       C  0.18478326  0.68167373  0.24613730    -0.11820
C1612       C  0.15510278  0.69486049  0.24589587     0.05180
C1613       C  0.15163816  0.72728677  0.24874110    -0.07110
C1614       C  0.17828516  0.74545696  0.25320197    -0.07860
C1615       C  0.20789723  0.73205408  0.25500310    -0.02410
C1616       C  0.21132903  0.69984420  0.25043695     0.04410
N1617       N  0.24134876  0.68524567  0.25037612     0.66920
H1618       H  0.18712275  0.65678826  0.24408003     0.15820
H1619       H  0.17591590  0.77020404  0.25640376     0.15530
N1620       N  0.12152235  0.74191182  0.24823295     0.74620
O1621       O  0.24423683  0.65765919  0.25963391    -0.38830
O1622       O  0.26447675  0.69867752  0.23831142    -0.38770
O1623       O  0.09867440  0.72880273  0.23566277    -0.39480
O1624       O  0.11813691  0.76913385  0.25827411    -0.39540
C1625       C  0.30782031  0.75062784  0.37915002    -0.11820
C1626       C  0.33942307  0.74568539  0.37307394     0.05180
C1627       C  0.35018436  0.74458592  0.34208694    -0.07110
C1628       C  0.32920595  0.74973316  0.31797727    -0.07860
C1629       C  0.29787418  0.75601216  0.32397023    -0.02410
C1630       C  0.28676395  0.75608705  0.35495953     0.04410
N1631       N  0.25503886  0.76360612  0.36248884     0.66920
H1632       H  0.29998701  0.75245309  0.40300816     0.15820
H1633       H  0.33746506  0.74935086  0.29418731     0.15530
N1634       N  0.38243863  0.73981482  0.33474692     0.74620
O1635       O  0.24276933  0.75313192  0.38702263    -0.38830
O1636       O  0.24039145  0.78348823  0.34685239    -0.38770
O1637       O  0.39838042  0.72077653  0.35011634    -0.39480
O1638       O  0.39419359  0.75198482  0.31075599    -0.39540
C1639       C  0.78911646  0.75453440  0.67949289    -0.11820
C1640       C  0.79530468  0.77370372  0.70481139     0.05180
C1641       C  0.81755650  0.79764324  0.70191588    -0.07110
C1642       C  0.83506298  0.79975094  0.67433660    -0.07860
C1643       C  0.83051544  0.77892275  0.64981578    -0.02410
C1644       C  0.80587114  0.75731812  0.65172930     0.04410
N1645       N  0.79791707  0.73791230  0.62587531     0.66920
H1646       H  0.77107364  0.73715701  0.68151179     0.15820
H1647       H  0.85383093  0.81636333  0.67287752     0.15530
N1648       N  0.82347456  0.81923751  0.72665064     0.74620
O1649       O  0.78625211  0.71146673  0.63038568    -0.38830
O1650       O  0.79987590  0.74821226  0.59850681    -0.38770
O1651       O  0.81873311  0.81195249  0.75464697    -0.39480
O1652       O  0.83495845  0.84546366  0.72060654    -0.39540
C1653       C  0.79419000  0.70979410  0.82421091    -0.11820
C1654       C  0.77740889  0.70620670  0.79668551     0.05180
C1655       C  0.76515090  0.67689670  0.78891217    -0.07110
C1656       C  0.76905795  0.65227570  0.80974452    -0.07860
C1657       C  0.78409888  0.65623631  0.83824435    -0.02410
C1658       C  0.79733585  0.68528301  0.84547697     0.04410
N1659       N  0.81201964  0.69107044  0.87481417     0.66920
H1660       H  0.80307169  0.73247611  0.83010489     0.15820
H1661       H  0.75891596  0.62996736  0.80443782     0.15530
N1662       N  0.74723279  0.67203155  0.76117664     0.74620
O1663       O  0.83333573  0.71100398  0.87663887    -0.38830
O1664       O  0.80134297  0.67937479  0.89952055    -0.38770
O1665       O  0.75301034  0.68700039  0.73665065    -0.39480
O1666       O  0.72710186  0.65082646  0.76034443    -0.39540
C1667       C  0.70551780  0.81700868  0.79589542    -0.11820
C1668       C  0.70490662  0.79300681  0.77410696     0.05180
C1669       C  0.67817330  0.78832164  0.75591818    -0.07110
C1670       C  0.65330366  0.80899427  0.75896645    -0.07860
C1671       C  0.65462606  0.83434439  0.77922922    -0.02410
C1672       C  0.68089929  0.83816578  0.79837717     0.04410
N1673       N  0.68419394  0.86443437  0.81851413     0.66920
H1674       H  0.72632809  0.82066497  0.80937753     0.15820
H1675       H  0.63296073  0.80593133  0.74465059     0.15530
N1676       N  0.67627137  0.76353542  0.73366218     0.74620
O1677       O  0.69827088  0.86157224  0.84395001    -0.38830
O1678       O  0.67721647  0.89122314  0.80912296    -0.38770
O1679       O  0.69036274  0.73832077  0.73810434    -0.39480
O1680       O  0.65844508  0.76581815  0.71063742    -0.39540
loop_ 
_geom_bond_atom_site_label_1 
_geom_bond_atom_site_label_2 
_geom_bond_distance 
_geom_bond_site_symmetry_2 
_ccdc_geom_bond_type 
C1            C2   1.401       .  A
C1            C6   1.403       .  A
C1         C1654   1.474       .  S
C2            C3   1.402       .  A
C2            H7   1.084       .  S
C3            C4   1.399       .  A
C3         C1640   1.472       .  S
C4            C5   1.402       .  A
C4            H8   1.084       .  S
C5            C6   1.401       .  A
C5         C1668   1.473       .  S
C6            H9   1.084       .  S
C10          C11   1.403       .  A
C10          C15   1.403       .  A
C10        C1629   1.476       .  S
C11          C12   1.397       .  A
C11          H16   1.084       .  S
C12          C13   1.401       .  A
C12        C1598   1.472       .  S
C13          C14   1.402       .  A
C13          H17   1.084       .  S
C14          C15   1.406       .  A
C14        C1615   1.481       .  S
C15          H18   1.084       .  S
C19          C20   1.413       .  A
C19          C24   1.413       .  A
C19        C1587   1.511       .  S
C20          C21   1.407       .  A
C20          H25   1.081       .  S
C21          C22   1.398       .  A
C21        C1570   1.478       .  S
C22          C23   1.396       .  A
C22          H26   1.084       .  S
C23          C24   1.398       .  A
C23        C1556   1.476       .  S
C24          H27   1.079       .  S
C28          C29   1.401       .  A
C28          C33   1.404       .  A
C28        C1517   1.478       .  S
C29          C30   1.406       .  A
C29          H34   1.084       .  S
C30          C31   1.404       .  A
C30        C1542   1.482       .  S
C31          C32   1.403       .  A
C31          H35   1.084       .  S
C32          C33   1.403       .  A
C32        C1531   1.479       .  S
C33          H36   1.084       .  S
C37          C38   1.404       .  A
C37          C42   1.404       .  A
C37        C1489   1.480       .  S
C38          C39   1.405       .  A
C38          H43   1.084       .  S
C39          C40   1.401       .  A
C39        C1500   1.478       .  S
C40          C41   1.402       .  A
C40          H44   1.084       .  S
C41          C42   1.399       .  A
C41        C1472   1.473       .  S
C42          H45   1.084       .  S
C46          C47   1.398       .  A
C46          C51   1.399       .  A
C46        C1433   1.476       .  S
C47          C48   1.411       .  A
C47          H52   1.082       .  S
C48          C49   1.407       .  A
C48        C1458   1.499       .  S
C49          C50   1.406       .  A
C49          H53   1.082       .  S
C50          C51   1.402       .  A
C50        C1444   1.486       .  S
C51          H54   1.084       .  S
C55          C56   1.400       .  A
C55          C60   1.400       .  A
C55        C1402   1.480       .  S
C56          C57   1.408       .  A
C56          H61   1.084       .  S
C57          C58   1.408       .  A
C57        C1388   1.495       .  S
C58          C59   1.410       .  A
C58          H62   1.082       .  S
C59          C60   1.402       .  A
C59        C1416   1.488       .  S
C60          H63   1.084       .  S
O64         Mg66   2.131       .  S
O64         Mg72   2.151       .  S
O64          C99   1.238       .  S
C65         H104   1.082       .  S
C65          O78   1.237       .  S
C65         O102   1.271       .  A
Mg66         O95   2.139   1_556  S
Mg66        O110   2.268       .  S
Mg66        O106   2.235   1_455  S
Mg66         O77   2.289   1_455  S
O67        Mg109   2.154       .  S
O67         Mg92   2.138       .  S
O67          C88   1.239       .  S
O68          C99   1.272   1_565  A
O68         Mg92   2.297   1_556  S
C69        C1374   1.490       .  S
C69          O71   1.277       .  A
C69          O83   1.270       .  A
O70          C98   1.271       .  A
O70         Mg72   2.304   1_554  S
O71        Mg103   2.285       .  S
Mg72         O78   2.127   1_556  S
Mg72         O86   2.284       .  S
Mg72         O74   2.346       .  S
C73        C1363   1.485       .  S
C73         O111   1.270       .  A
C73          O79   1.278   1_655  A
O74          C81   1.280   1_545  A
H75          C88   1.082       .  S
C76         H101   1.082       .  S
C76          O90   1.236       .  S
C76          O91   1.269       .  A
O77         C100   1.271   1_556  A
O78         Mg92   2.132   1_545  S
O79        Mg109   2.328       .  S
C80        C1318   1.483       .  S
C80          O93   1.273       .  A
C80          O85   1.271       .  A
C81        C1307   1.493       .  S
C81         O108   1.271       .  A
Mg82         O89   2.129       .  S
Mg82         O90   2.136   1_655  S
Mg82         O83   2.270       .  S
Mg82         O84   2.298   1_545  S
Mg82        O111   2.244   1_545  S
O84          C88   1.273   1_655  A
O85         Mg92   2.274       .  S
O86         C105   1.276       .  A
O87         C107   1.279   1_554  A
O87        Mg103   2.342       .  S
O89        Mg103   2.162       .  S
O89         C100   1.239       .  S
O90        Mg109   2.121   1_545  S
O91        Mg103   2.296   1_455  S
Mg92        O108   2.247   1_554  S
O93        Mg109   2.265       .  S
H94          C99   1.082       .  S
O95        Mg103   2.130   1_455  S
O95          C98   1.237       .  S
H96          C98   1.082       .  S
H97         C100   1.082       .  S
O102       Mg109   2.303   1_545  S
C105       C1349   1.489       .  S
C105        O110   1.270       .  A
O106        C107   1.270       .  A
C107       C1335   1.498       .  S
C112        C113   1.409       .  A
C112        C117   1.412       .  A
C112       C1293   1.491       .  S
C113        C114   1.399       .  A
C113        H118   1.084       .  S
C114        C115   1.392       .  A
C114       C1346   1.481       .  S
C115        C116   1.402       .  A
C115        H119   1.084       .  S
C116        C117   1.410       .  A
C116       C1276   1.483       .  S
C117        H120   1.083       .  S
C121        C122   1.409       .  A
C121        C126   1.408       .  A
C121       C1262   1.492       .  S
C122        C123   1.403       .  A
C122        H127   1.083       .  S
C123        C124   1.398       .  A
C123       C1486   1.474       .  S
C124        C125   1.399       .  A
C124        H128   1.084       .  S
C125        C126   1.407       .  A
C125       C1377   1.486       .  S
C126        H129   1.083       .  S
C130        C131   1.420       .  A
C130        C135   1.412       .  A
C130       C1248   1.511       .  S
C131        C132   1.415       .  A
C131        H136   1.078       .  S
C132        C133   1.401       .  A
C132       C1601   1.492       .  S
C133        C134   1.387       .  A
C133        H137   1.084       .  S
C134        C135   1.393       .  A
C134       C1321   1.473       .  S
C135        H138   1.082       .  S
O139       Mg141   2.109       .  S
O139       Mg147   2.134       .  S
O139        C174   1.235       .  S
C140        H179   1.083       .  S
C140        O153   1.241   1_455  S
C140        O177   1.276       .  A
Mg141       O170   2.142       .  S
Mg141       O185   2.280       .  S
Mg141       O181   2.210       .  S
Mg141       O152   2.290       .  S
O142       Mg184   2.130       .  S
O142       Mg167   2.104   1_455  S
O142        C163   1.236       .  S
O143        C174   1.267       .  A
O143       Mg167   2.289       .  S
C144       C1192   1.497       .  S
C144        O146   1.275       .  A
C144        O158   1.272       .  A
O145        C173   1.275       .  A
O145       Mg147   2.312       .  S
O146       Mg178   2.315   1_455  S
Mg147       O153   2.164       .  S
Mg147       O161   2.313       .  S
Mg147       O149   2.356       .  S
C148       C1206   1.466       .  S
C148        O186   1.266       .  A
C148        O154   1.276       .  A
O149        C156   1.281       .  A
H150        C163   1.082   1_655  S
C151        H176   1.081       .  S
C151        O165   1.240       .  S
C151        O166   1.275       .  A
O152        C175   1.269       .  A
O153       Mg167   2.141       .  S
O154       Mg184   2.333       .  S
C155       C1164   1.483       .  S
C155        O168   1.274       .  A
C155        O160   1.271       .  A
C156       C1178   1.475       .  S
C156        O183   1.266       .  A
Mg157       O164   2.108   1_455  S
Mg157       O165   2.139       .  S
Mg157       O158   2.271       .  S
Mg157       O159   2.298   1_455  S
Mg157       O186   2.217       .  S
O159        C163   1.269   1_655  A
O160       Mg167   2.273   1_455  S
O161        C180   1.278       .  A
O162        C182   1.280       .  A
O162       Mg178   2.352       .  S
O164       Mg178   2.139       .  S
O164        C175   1.236       .  S
O165       Mg184   2.165       .  S
O166       Mg178   2.317   1_455  S
Mg167       O183   2.203       .  S
O168       Mg184   2.305       .  S
H169        C174   1.081       .  S
O170       Mg178   2.159       .  S
O170        C173   1.240       .  S
H171        C173   1.082       .  S
H172        C175   1.082       .  S
O177       Mg184   2.317       .  S
C180       C1220   1.493       .  S
C180        O185   1.272       .  A
O181        C182   1.268       .  A
C182       C1237   1.477       .  S
C187        C188   1.412       .  A
C187        C192   1.409       .  A
C187       C1150   1.493       .  S
C188        C189   1.410       .  A
C188        H193   1.083       .  S
C189        C190   1.399       .  A
C189       C1503   1.477       .  S
C190        C191   1.392       .  A
C190        H194   1.085       .  S
C191        C192   1.403       .  A
C191       C1234   1.477       .  S
C192        H195   1.084       .  S
C196        C197   1.407       .  A
C196        C201   1.406       .  A
C196       C1136   1.491       .  S
C197        C198   1.406       .  A
C197        H202   1.083       .  S
C198        C199   1.399       .  A
C198       C1612   1.472       .  S
C199        C200   1.398       .  A
C199        H203   1.084       .  S
C200        C201   1.405       .  A
C200       C1209   1.489       .  S
C201        H204   1.083       .  S
C205        C206   1.408       .  A
C205        C210   1.405       .  A
C205       C1122   1.482       .  S
C206        C207   1.409       .  A
C206        H211   1.083       .  S
C207        C208   1.403       .  A
C207       C1643   1.486       .  S
C208        C209   1.395       .  A
C208        H212   1.084       .  S
C209        C210   1.404       .  A
C209       C1181   1.479       .  S
C210        H213   1.084       .  S
O214       Mg216   2.138       .  S
O214       Mg222   2.151       .  S
O214        C249   1.239   1_565  S
C215        H254   1.082       .  S
C215        O228   1.236   1_565  S
C215        O252   1.269   1_565  A
Mg216       O245   2.132       .  S
Mg216       O260   2.296       .  S
Mg216       O256   2.246   1_455  S
Mg216       O227   2.301   1_455  S
O217       Mg259   2.157       .  S
O217       Mg242   2.132       .  S
O217        C238   1.239       .  S
O218        C249   1.273       .  A
O218       Mg242   2.298       .  S
C219       C1066   1.489       .  S
C219        O221   1.273       .  A
C219        O233   1.274       .  A
O220        C248   1.271       .  A
O220       Mg222   2.302       .  S
O221       Mg253   2.267       .  S
Mg222       O228   2.117   1_565  S
Mg222       O236   2.261       .  S
Mg222       O224   2.323   1_565  S
C223       C1265   1.489       .  S
C223        O261   1.272       .  A
C223        O229   1.279   1_655  A
O224        C231   1.276       .  A
H225        C238   1.081       .  S
C226        H251   1.083       .  S
C226        O240   1.236       .  S
C226        O241   1.270       .  A
O227        C250   1.273       .  A
O228       Mg242   2.135       .  S
O229       Mg259   2.330       .  S
C230       C1108   1.482       .  S
C230        O243   1.275       .  A
C230        O235   1.273       .  A
C231       C1097   1.486       .  S
C231        O258   1.271       .  A
Mg232       O239   2.147   1_545  S
Mg232       O240   2.141   1_645  S
Mg232       O233   2.280   1_545  S
Mg232       O234   2.292       .  S
Mg232       O261   2.259       .  S
O234        C238   1.272   1_655  A
O235       Mg242   2.280       .  S
O236        C255   1.271       .  A
O237        C257   1.281       .  A
O237       Mg253   2.350       .  S
O239       Mg253   2.159       .  S
O239        C250   1.239       .  S
O240       Mg259   2.127   1_565  S
O241       Mg253   2.298   1_455  S
Mg242       O258   2.252       .  S
O243       Mg259   2.278       .  S
H244        C249   1.083       .  S
O245       Mg253   2.125   1_455  S
O245        C248   1.237       .  S
H246        C248   1.081       .  S
H247        C250   1.082       .  S
O252       Mg259   2.295       .  S
C255       C1080   1.468       .  S
C255        O260   1.273       .  A
O256        C257   1.269       .  A
C257       C1125   1.500       .  S
C262        C263   1.411       .  A
C262        C267   1.415       .  A
C262       C1167   1.501       .  S
C263        C264   1.399       .  A
C263        H268   1.083       .  S
C264        C265   1.393       .  A
C264       C1083   1.477       .  S
C265        C266   1.400       .  A
C265        H269   1.085       .  S
C266        C267   1.409       .  A
C266       C1391   1.479       .  S
C267        H270   1.082       .  S
C271        C272   1.413       .  A
C271        C276   1.410       .  A
C271       C1055   1.497       .  S
C272        C273   1.408       .  A
C272        H277   1.083       .  S
C273        C274   1.398       .  A
C273       C1528   1.476       .  S
C274        C275   1.393       .  A
C274        H278   1.085       .  S
C275        C276   1.400       .  A
C275       C1111   1.474       .  S
C276        H279   1.083       .  S
C280        C281   1.409       .  A
C280        C285   1.409       .  A
C280       C1360   1.489       .  S
C281        C282   1.401       .  A
C281        H286   1.084       .  S
C282        C283   1.394       .  A
C282       C1573   1.471       .  S
C283        C284   1.397       .  A
C283        H287   1.085       .  S
C284        C285   1.407       .  A
C284       C1069   1.484       .  S
C285        H288   1.083       .  S
O289       Mg291   2.142       .  S
O289       Mg297   2.153       .  S
O289        C324   1.240   1_556  S
C290        H329   1.081       .  S
C290        O303   1.236   1_556  S
C290        O327   1.269   1_556  A
Mg291       O320   2.129       .  S
Mg291       O335   2.284       .  S
Mg291       O331   2.253       .  S
Mg291       O302   2.301       .  S
O292       Mg334   2.160       .  S
O292       Mg317   2.147       .  S
O292        C313   1.239       .  S
O293        C324   1.274       .  A
O293       Mg317   2.298       .  S
C294        C982   1.472       .  S
C294        O296   1.272       .  A
C294        O308   1.275       .  A
O295        C323   1.269       .  A
O295       Mg297   2.291       .  S
O296       Mg328   2.249       .  S
Mg297       O303   2.114   1_556  S
Mg297       O311   2.280       .  S
Mg297       O299   2.339   1_556  S
C298        C971   1.497       .  S
C298        O336   1.269       .  A
C298        O304   1.279       .  A
O299        C306   1.279       .  A
H300        C313   1.083       .  S
C301        H326   1.082       .  S
C301        O315   1.236       .  S
C301        O316   1.270       .  A
O302        C325   1.274       .  A
O303       Mg317   2.127       .  S
O304       Mg334   2.341       .  S
C305       C1013   1.486       .  S
C305        O318   1.275       .  A
C305        O310   1.274       .  A
C306        C996   1.477       .  S
C306        O333   1.272       .  A
Mg307       O314   2.141   1_554  S
Mg307       O315   2.140   1_554  S
Mg307       O308   2.304   1_554  S
Mg307       O309   2.297       .  S
Mg307       O336   2.236       .  S
O309        C313   1.272       .  A
O310       Mg317   2.289       .  S
O311        C330   1.274       .  A
O312        C332   1.277       .  A
O312       Mg328   2.327       .  S
O314       Mg328   2.155       .  S
O314        C325   1.240       .  S
O315       Mg334   2.135   1_556  S
O316       Mg328   2.302       .  S
Mg317       O333   2.257       .  S
O318       Mg334   2.277       .  S
H319        C324   1.082       .  S
O320       Mg328   2.109       .  S
O320        C323   1.235       .  S
H321        C323   1.083       .  S
H322        C325   1.081       .  S
O327       Mg334   2.295       .  S
C330       C1038   1.468       .  S
C330        O335   1.271       .  A
O331        C332   1.271       .  A
C332       C1024   1.483       .  S
C337        C338   1.403       .  A
C337        C342   1.411       .  A
C337        C954   1.481       .  S
C338        C339   1.399       .  A
C338        H343   1.084       .  S
C339        C340   1.393       .  A
C339       C1041   1.483       .  S
C340        C341   1.408       .  A
C340        H344   1.082       .  S
C341        C342   1.414       .  A
C341        C940   1.503       .  S
C342        H345   1.081       .  S
C346        C347   1.408       .  A
C346        C351   1.407       .  A
C346        C929   1.483       .  S
C347        C348   1.408       .  A
C347        H352   1.083       .  S
C348        C349   1.401       .  A
C348       C1475   1.481       .  S
C349        C350   1.395       .  A
C349        H353   1.085       .  S
C350        C351   1.402       .  A
C350       C1010   1.481       .  S
C351        H354   1.084       .  S
C355        C356   1.413       .  A
C355        C360   1.409       .  A
C355        C915   1.490       .  S
C356        C357   1.410       .  A
C356        H361   1.083       .  S
C357        C358   1.399       .  A
C357       C1657   1.478       .  S
C358        C359   1.391       .  A
C358        H362   1.085       .  S
C359        C360   1.397       .  A
C359        C985   1.470       .  S
C360        H363   1.084       .  S
O364       Mg366   2.095   1_455  S
O364       Mg372   2.122       .  S
O364        C399   1.235   1_455  S
C365        H404   1.083       .  S
C365        O378   1.240       .  S
C365        O402   1.276       .  A
Mg366       O395   2.141   1_554  S
Mg366       O410   2.283   1_654  S
Mg366       O406   2.218   1_554  S
Mg366       O377   2.290       .  S
O367       Mg409   2.123       .  S
O367       Mg392   2.111   1_655  S
O367        C388   1.236       .  S
O368        C399   1.268       .  A
O368       Mg392   2.290   1_655  S
C369        C912   1.489       .  S
C369        O371   1.275       .  A
C369        O383   1.270       .  A
O370        C398   1.277   1_554  A
O370       Mg372   2.317       .  S
O371       Mg403   2.307       .  S
Mg372       O378   2.155       .  S
Mg372       O386   2.295       .  S
Mg372       O374   2.342       .  S
C373        C884   1.465       .  S
C373        O411   1.264       .  A
C373        O379   1.277       .  A
O374        C381   1.278       .  A
H375        C388   1.083       .  S
C376        H401   1.082       .  S
C376        O390   1.240       .  S
C376        O391   1.277   1_554  A
O377        C400   1.269       .  A
O378       Mg392   2.134       .  S
O379       Mg409   2.341       .  S
C380       C1139   1.487       .  S
C380        O393   1.275       .  A
C380        O385   1.270       .  A
C381        C898   1.467       .  S
C381        O408   1.266       .  A
Mg382       O389   2.107       .  S
Mg382       O390   2.128       .  S
Mg382       O383   2.276   1_554  S
Mg382       O384   2.304       .  S
Mg382       O411   2.218       .  S
O384        C388   1.270       .  A
O385       Mg392   2.271       .  S
O386        C405   1.275       .  A
O387        C407   1.278       .  A
O387       Mg403   2.346       .  S
O389       Mg403   2.128   1_554  S
O389        C400   1.235       .  S
O390       Mg409   2.165       .  S
O391       Mg403   2.325       .  S
Mg392       O408   2.217       .  S
O393       Mg409   2.304   1_455  S
H394        C399   1.082       .  S
O395       Mg403   2.163       .  S
O395        C398   1.241   1_655  S
H396        C398   1.083       .  S
H397        C400   1.083       .  S
O402       Mg409   2.317   1_455  S
C405       C1290   1.487   1_554  S
C405        O410   1.273   1_554  A
O406        C407   1.267       .  A
C407        C870   1.467       .  S
C412        C413   1.406       .  A
C412        C417   1.407       .  A
C412        C968   1.478       .  S
C413        C414   1.402       .  A
C413        H418   1.084       .  S
C414        C415   1.395       .  A
C414       C1559   1.468       .  S
C415        C416   1.393       .  A
C415        H419   1.085       .  S
C416        C417   1.404       .  A
C416        C887   1.472       .  S
C417        H420   1.084       .  S
C421        C422   1.407       .  A
C421        C426   1.407       .  A
C421       C1195   1.488       .  S
C422        C423   1.406       .  A
C422        H427   1.083       .  S
C423        C424   1.400       .  A
C423       C1545   1.474       .  S
C424        C425   1.398       .  A
C424        H428   1.084       .  S
C425        C426   1.406       .  A
C425        C901   1.490       .  S
C426        H429   1.083       .  S
C430        C431   1.403       .  A
C430        C435   1.406       .  A
C430       C1332   1.478       .  S
C431        C432   1.404       .  A
C431        H436   1.084       .  S
C432        C433   1.396       .  A
C432        C873   1.477       .  S
C433        C434   1.399       .  A
C433        H437   1.085       .  S
C434        C435   1.405       .  A
C434       C1447   1.474       .  S
C435        H438   1.084       .  S
O439       Mg441   2.136   1_556  S
O439       Mg447   2.165       .  S
O439        C474   1.240       .  S
C440        H479   1.081       .  S
C440        O453   1.237       .  S
C440        O477   1.271       .  A
Mg441       O470   2.133   1_564  S
Mg441       O485   2.271   1_554  S
Mg441       O481   2.261       .  S
Mg441       O452   2.296       .  S
O442       Mg484   2.158       .  S
O442       Mg467   2.146       .  S
O442        C463   1.240   1_556  S
O443        C474   1.273       .  A
O443       Mg467   2.299   1_565  S
C444        C859   1.480       .  S
C444        O446   1.272       .  A
C444        O458   1.269       .  A
O445        C473   1.269       .  A
O445       Mg447   2.293   1_545  S
O446       Mg478   2.269       .  S
Mg447       O453   2.134   1_565  S
Mg447       O461   2.289       .  S
Mg447       O449   2.337       .  S
C448        C926   1.499       .  S
C448        O486   1.266       .  A
C448        O454   1.284       .  A
O449        C456   1.279       .  A
H450        C463   1.082       .  S
C451        H476   1.082       .  S
C451        O465   1.237       .  S
C451        O466   1.271       .  A
O452        C475   1.272   1_565  A
O453       Mg467   2.130       .  S
O454       Mg484   2.377   1_554  S
C455        C842   1.484       .  S
C455        O468   1.277       .  A
C455        O460   1.273       .  A
C456        C828   1.493       .  S
C456        O483   1.271       .  A
Mg457       O464   2.127       .  S
Mg457       O465   2.131   1_554  S
Mg457       O458   2.269       .  S
Mg457       O459   2.299       .  S
Mg457       O486   2.229       .  S
O459        C463   1.273       .  A
O460       Mg467   2.281       .  S
O461        C480   1.276       .  A
O462        C482   1.276   1_545  A
O462       Mg478   2.321       .  S
O464       Mg478   2.152       .  S
O464        C475   1.239       .  S
O465       Mg484   2.123       .  S
O466       Mg478   2.301   1_556  S
Mg467       O483   2.255   1_545  S
O468       Mg484   2.284       .  S
H469        C474   1.082       .  S
O470       Mg478   2.114   1_556  S
O470        C473   1.236       .  S
H471        C473   1.082       .  S
H472        C475   1.081       .  S
O477       Mg484   2.306       .  S
C480        C814   1.494       .  S
C480        O485   1.271       .  A
O481        C482   1.272       .  A
C482       C1251   1.472       .  S
C487        C488   1.409       .  A
C487        C492   1.409       .  A
C487        C803   1.487       .  S
C488        C489   1.407       .  A
C488        H493   1.083       .  S
C489        C490   1.402       .  A
C489       C1430   1.486       .  S
C490        C491   1.396       .  A
C490        H494   1.084       .  S
C491        C492   1.403       .  A
C491        C845   1.477       .  S
C492        H495   1.084       .  S
C496        C497   1.413       .  A
C496        C501   1.408       .  A
C496        C999   1.500       .  S
C497        C498   1.410       .  A
C497        H502   1.082       .  S
C498        C499   1.402       .  A
C498       C1514   1.487       .  S
C499        C500   1.399       .  A
C499        H503   1.082       .  S
C500        C501   1.406       .  A
C500        C856   1.501       .  S
C501        H504   1.081       .  S
C505        C506   1.406       .  A
C505        C510   1.407       .  A
C505       C1304   1.488       .  S
C506        C507   1.402       .  A
C506        H511   1.084       .  S
C507        C508   1.397       .  A
C507       C1405   1.472       .  S
C508        C509   1.401       .  A
C508        H512   1.084       .  S
C509        C510   1.411       .  A
C509        C817   1.491       .  S
C510        H513   1.083       .  S
O514       Mg516   2.115       .  S
O514       Mg522   2.124       .  S
O514        C549   1.237       .  S
C515        H554   1.081       .  S
C515        O528   1.240       .  S
C515        O552   1.277       .  A
Mg516       O545   2.135       .  S
Mg516       O560   2.281       .  S
Mg516       O556   2.229       .  S
Mg516       O527   2.291       .  S
O517       Mg559   2.126       .  S
O517       Mg542   2.096       .  S
O517        C538   1.235       .  S
O518        C549   1.272       .  A
O518       Mg542   2.312       .  S
C519        C758   1.499       .  S
C519        O521   1.274       .  A
C519        O533   1.273       .  A
O520        C548   1.276       .  A
O520       Mg522   2.316       .  S
O521       Mg553   2.300       .  S
Mg522       O528   2.167       .  S
Mg522       O536   2.295       .  S
Mg522       O524   2.352       .  S
C523        C772   1.463       .  S
C523        O561   1.266       .  A
C523        O529   1.278       .  A
O524        C531   1.277       .  A
H525        C538   1.081       .  S
C526        H551   1.082       .  S
C526        O540   1.241       .  S
C526        O541   1.276       .  A
O527        C550   1.268       .  A
O528       Mg542   2.116       .  S
O529       Mg559   2.337       .  S
C530       C1153   1.497       .  S
C530        O543   1.276       .  A
C530        O535   1.270       .  A
C531        C786   1.466       .  S
C531        O558   1.261       .  A
Mg532       O539   2.096       .  S
Mg532       O540   2.145       .  S
Mg532       O533   2.277       .  S
Mg532       O534   2.290       .  S
Mg532       O561   2.213       .  S
O534        C538   1.269       .  A
O535       Mg542   2.277       .  S
O536        C555   1.274       .  A
O537        C557   1.277       .  A
O537       Mg553   2.336       .  S
O539       Mg553   2.130       .  S
O539        C550   1.235       .  S
O540       Mg559   2.161       .  S
O541       Mg553   2.310       .  S
Mg542       O558   2.203       .  S
O543       Mg559   2.320       .  S
H544        C549   1.082       .  S
O545       Mg553   2.153       .  S
O545        C548   1.241       .  S
H546        C548   1.081       .  S
H547        C550   1.081       .  S
O552       Mg559   2.325       .  S
C555        C957   1.489       .  S
C555        O560   1.272       .  A
O556        C557   1.267       .  A
C557        C744   1.465       .  S
C562        C563   1.412       .  A
C562        C567   1.405       .  A
C562        C730   1.479       .  S
C563        C564   1.413       .  A
C563        H568   1.083       .  S
C564        C565   1.404       .  A
C564       C1584   1.495       .  S
C565        C566   1.386       .  A
C565        H569   1.084       .  S
C566        C567   1.397       .  A
C566        C775   1.471       .  S
C567        H570   1.084       .  S
C571        C572   1.414       .  A
C571        C576   1.412       .  A
C571       C1027   1.504       .  S
C572        C573   1.407       .  A
C572        H577   1.082       .  S
C573        C574   1.396       .  A
C573       C1419   1.475       .  S
C574        C575   1.392       .  A
C574        H578   1.085       .  S
C575        C576   1.403       .  A
C575        C747   1.477       .  S
C576        H579   1.083       .  S
C580        C581   1.412       .  A
C580        C585   1.404       .  A
C580       C1223   1.487       .  S
C581        C582   1.416       .  A
C581        H586   1.080       .  S
C582        C583   1.406       .  A
C582       C1461   1.507       .  S
C583        C584   1.394       .  A
C583        H587   1.082       .  S
C584        C585   1.403       .  A
C584        C789   1.488       .  S
C585        H588   1.083       .  S
O589       Mg591   2.108   1_545  S
O589       Mg597   2.130       .  S
O589        C624   1.235       .  S
C590        H629   1.082       .  S
C590        O603   1.240       .  S
C590        O627   1.276       .  A
Mg591       O620   2.134   1_565  S
Mg591       O635   2.280   1_565  S
Mg591       O631   2.206       .  S
Mg591       O602   2.291       .  S
O592       Mg634   2.130       .  S
O592       Mg617   2.102   1_565  S
O592        C613   1.235       .  S
O593        C624   1.269       .  A
O593       Mg617   2.293       .  S
C594        C733   1.497       .  S
C594        O596   1.275       .  A
C594        O608   1.273       .  A
O595        C623   1.275       .  A
O595       Mg597   2.315       .  S
O596       Mg628   2.306       .  S
Mg597       O603   2.165       .  S
Mg597       O611   2.304       .  S
Mg597       O599   2.332       .  S
C598        C716   1.473       .  S
C598        O636   1.268       .  A
C598        O604   1.279       .  A
O599        C606   1.276       .  A
H600        C613   1.082       .  S
C601        H626   1.083       .  S
C601        O615   1.241       .  S
C601        O616   1.276       .  A
O602        C625   1.268       .  A
O603       Mg617   2.138       .  S
O604       Mg634   2.352       .  S
C605       C1052   1.488       .  S
C605        O618   1.275   1_545  A
C605        O610   1.273       .  A
C606        C702   1.463       .  S
C606        O633   1.266       .  A
Mg607       O614   2.103       .  S
Mg607       O615   2.142       .  S
Mg607       O608   2.277       .  S
Mg607       O609   2.284       .  S
Mg607       O636   2.223       .  S
O609        C613   1.268       .  A
O610       Mg617   2.279       .  S
O611        C630   1.275       .  A
O612        C632   1.281       .  A
O612       Mg628   2.356       .  S
O614       Mg628   2.125       .  S
O614        C625   1.235       .  S
O615       Mg634   2.157       .  S
O616       Mg628   2.316       .  S
Mg617       O633   2.218       .  S
O618       Mg634   2.307       .  S
H619        C624   1.083   1_565  S
O620       Mg628   2.155   1_545  S
O620        C623   1.240       .  S
H621        C623   1.083       .  S
H622        C625   1.082       .  S
O627       Mg634   2.319   1_545  S
C630        C800   1.483       .  S
C630        O635   1.271       .  A
O631        C632   1.267       .  A
C632        C691   1.484       .  S
C637        C638   1.403       .  A
C637        C642   1.405       .  A
C637        C761   1.482       .  S
C638        C639   1.405       .  A
C638        H643   1.084       .  S
C639        C640   1.399       .  A
C639        C719   1.486       .  S
C640        C641   1.402       .  A
C640        H644   1.084       .  S
C641        C642   1.406       .  A
C641       C1626   1.473       .  S
C642        H645   1.083       .  S
C646        C647   1.406       .  A
C646        C651   1.413       .  A
C646       C1094   1.492       .  S
C647        C648   1.398       .  A
C647        H652   1.084       .  S
C648        C649   1.390       .  A
C648        C705   1.469       .  S
C649        C650   1.400       .  A
C649        H653   1.085       .  S
C650        C651   1.411       .  A
C650        C674   1.483       .  S
C651        H654   1.082       .  S
C655        C656   1.408       .  A
C655        C660   1.406       .  A
C655        C831   1.485       .  S
C656        C657   1.407       .  A
C656        H661   1.083       .  S
C657        C658   1.401       .  A
C657       C1671   1.481       .  S
C658        C659   1.395       .  A
C658        H662   1.084       .  S
C659        C660   1.406       .  A
C659        C688   1.482       .  S
C660        H663   1.084       .  S
C664        C665   1.397       .  A
C664        C669   1.406       .  A
C664        C677   1.473       .  S
C665        C666   1.396       .  A
C665        H670   1.084       .  S
C666        C667   1.395       .  A
C666       C1279   1.473       .  S
C667        C668   1.411       .  A
C667        H671   1.081       .  S
C668        C669   1.412       .  A
C668        C943   1.502       .  S
C669        H672   1.082       .  S
C673        C674   1.407       .  A
C673        C678   1.408       .  A
C673        H680   1.084       .  S
C674        C675   1.406       .  A
C675        C676   1.397       .  A
C675        N682   1.428       .  S
C676        C677   1.402       .  A
C676        H681   1.084       .  S
C677        C678   1.421       .  A
C678        N679   1.449       .  S
N679        O683   1.263       .  A
N679        O684   1.261       .  A
N682        O685   1.262       .  A
N682        O686   1.262       .  A
C687        C688   1.406       .  A
C687        C692   1.404       .  A
C687        H694   1.084       .  S
C688        C689   1.412       .  A
C689        C690   1.399       .  A
C689        N696   1.440       .  S
C690        C691   1.408       .  A
C690        H695   1.084       .  S
C691        C692   1.415       .  A
C692        N693   1.434       .  S
N693        O697   1.262       .  A
N693        O698   1.262       .  A
N696        O699   1.263       .  A
N696        O700   1.263       .  A
C701        C702   1.401       .  A
C701        C706   1.407       .  A
C701        H708   1.084       .  S
C702        C703   1.410       .  A
C703        C704   1.394       .  A
C703        N710   1.436       .  S
C704        C705   1.397       .  A
C704        H709   1.084       .  S
C705        C706   1.417       .  A
C706        N707   1.442       .  S
N707        O711   1.263       .  A
N707        O712   1.262       .  A
N710        O713   1.262       .  A
N710        O714   1.263       .  A
C715        C716   1.401       .  A
C715        C720   1.411       .  A
C715        H722   1.084       .  S
C716        C717   1.412       .  A
C717        C718   1.393       .  A
C717        N724   1.435       .  S
C718        C719   1.400       .  A
C718        H723   1.084       .  S
C719        C720   1.422       .  A
C720        N721   1.438       .  S
N721        O725   1.263       .  A
N721        O726   1.263       .  A
N724        O727   1.261       .  A
N724        O728   1.263       .  A
C729        C730   1.404       .  A
C729        C734   1.406       .  A
C729        H736   1.084       .  S
C730        C731   1.415       .  A
C731        C732   1.405       .  A
C731        N738   1.445       .  S
C732        C733   1.411       .  A
C732        H737   1.083       .  S
C733        C734   1.416       .  A
C734        N735   1.434       .  S
N735        O739   1.262       .  A
N735        O740   1.262       .  A
N738        O741   1.261       .  A
N738        O742   1.263       .  A
C743        C744   1.403       .  A
C743        C748   1.400       .  A
C743        H750   1.085       .  S
C744        C745   1.413       .  A
C745        C746   1.408       .  A
C745        N752   1.445       .  S
C746        C747   1.406       .  A
C746        H751   1.083       .  S
C747        C748   1.411       .  A
C748        N749   1.442       .  S
N749        O753   1.263       .  A
N749        O754   1.263       .  A
N752        O755   1.262       .  A
N752        O756   1.263       .  A
C757        C758   1.410       .  A
C757        C762   1.402       .  A
C757        H764   1.083       .  S
C758        C759   1.420       .  A
C759        C760   1.409       .  A
C759        N766   1.433       .  S
C760        C761   1.403       .  A
C760        H765   1.084       .  S
C761        C762   1.412       .  A
C762        N763   1.442       .  S
N763        O767   1.263       .  A
N763        O768   1.262       .  A
N766        O769   1.262       .  A
N766        O770   1.262       .  A
C771        C772   1.397       .  A
C771        C776   1.402       .  A
C771        H778   1.084       .  S
C772        C773   1.413       .  A
C773        C774   1.400       .  A
C773        N780   1.436       .  S
C774        C775   1.396       .  A
C774        H779   1.084       .  S
C775        C776   1.420       .  A
C776        N777   1.441       .  S
N777        O781   1.263       .  A
N777        O782   1.262       .  A
N780        O783   1.262       .  A
N780        O784   1.263       .  A
C785        C786   1.406       .  A
C785        C790   1.400       .  A
C785        H792   1.085       .  S
C786        C787   1.409       .  A
C787        C788   1.405       .  A
C787        N794   1.443       .  S
C788        C789   1.414       .  A
C788        H793   1.083       .  S
C789        C790   1.411       .  A
C790        N791   1.440       .  S
N791        O795   1.263       .  A
N791        O796   1.263       .  A
N794        O797   1.262       .  A
N794        O798   1.263       .  A
C799        C800   1.403       .  A
C799        C804   1.409       .  A
C799        H806   1.084       .  S
C800        C801   1.417       .  A
C801        C802   1.405       .  A
C801        N808   1.441       .  S
C802        C803   1.402       .  A
C802        H807   1.084       .  S
C803        C804   1.418       .  A
C804        N805   1.441       .  S
N805        O809   1.263       .  A
N805        O810   1.263       .  A
N808        O811   1.263       .  A
N808        O812   1.263       .  A
C813        C814   1.406       .  A
C813        C818   1.408       .  A
C813        H820   1.083       .  S
C814        C815   1.420       .  A
C815        C816   1.396       .  A
C815        N822   1.430       .  S
C816        C817   1.401       .  A
C816        H821   1.084       .  S
C817        C818   1.420       .  A
C818        N819   1.438       .  S
N819        O823   1.263       .  A
N819        O824   1.263       .  A
N822        O825   1.262       .  A
N822        O826   1.262       .  A
C827        C828   1.407       .  A
C827        C832   1.411       .  A
C827        H834   1.083       .  S
C828        C829   1.419       .  A
C829        C830   1.402       .  A
C829        N836   1.437       .  S
C830        C831   1.400       .  A
C830        H835   1.084       .  S
C831        C832   1.417       .  A
C832        N833   1.442       .  S
N833        O837   1.263       .  A
N833        O838   1.263       .  A
N836        O839   1.263       .  A
N836        O840   1.263       .  A
C841        C842   1.405       .  A
C841        C846   1.405       .  A
C841        H848   1.083       .  S
C842        C843   1.419       .  A
C843        C844   1.404       .  A
C843        N850   1.438       .  S
C844        C845   1.400       .  A
C844        H849   1.084       .  S
C845        C846   1.414       .  A
C846        N847   1.442       .  S
N847        O851   1.263       .  A
N847        O852   1.263       .  A
N850        O853   1.263       .  A
N850        O854   1.263       .  A
C855        C856   1.406       .  A
C855        C860   1.392       .  A
C855        H862   1.081       .  S
C856        C857   1.425       .  A
C857        C858   1.407       .  A
C857        N864   1.437       .  S
C858        C859   1.402       .  A
C858        H863   1.083       .  S
C859        C860   1.413       .  A
C860        N861   1.433       .  S
N861        O865   1.262       .  A
N861        O866   1.260       .  A
N864        O867   1.263       .  A
N864        O868   1.263       .  A
C869        C870   1.399       .  A
C869        C874   1.406       .  A
C869        H876   1.084       .  S
C870        C871   1.412       .  A
C871        C872   1.397       .  A
C871        N878   1.435   1_556  S
C872        C873   1.397       .  A
C872        H877   1.084       .  S
C873        C874   1.420       .  A
C874        N875   1.439       .  S
N875        O879   1.263       .  A
N875        O880   1.263       .  A
N878        O881   1.261       .  A
N878        O882   1.263       .  A
C883        C884   1.404       .  A
C883        C888   1.406       .  A
C883        H890   1.084       .  S
C884        C885   1.412       .  A
C885        C886   1.402       .  A
C885        N892   1.442       .  S
C886        C887   1.402       .  A
C886        H891   1.084       .  S
C887        C888   1.414       .  A
C888        N889   1.443       .  S
N889        O893   1.263       .  A
N889        O894   1.262       .  A
N892        O895   1.263       .  A
N892        O896   1.263       .  A
C897        C898   1.403       .  A
C897        C902   1.397       .  A
C897        H904   1.085       .  S
C898        C899   1.412       .  A
C899        C900   1.409       .  A
C899        N906   1.444       .  S
C900        C901   1.412       .  A
C900        H905   1.083       .  S
C901        C902   1.413       .  A
C902        N903   1.439       .  S
N903        O907   1.263       .  A
N903        O908   1.263       .  A
N906        O909   1.262       .  A
N906        O910   1.263       .  A
C911        C912   1.407       .  A
C911        C916   1.414       .  A
C911        H918   1.083       .  S
C912        C913   1.418       .  A
C913        C914   1.397       .  A
C913        N920   1.438       .  S
C914        C915   1.402       .  A
C914        H919   1.084       .  S
C915        C916   1.419       .  A
C916        N917   1.440       .  S
N917        O921   1.263       .  A
N917        O922   1.262       .  A
N920        O923   1.263   1_556  A
N920        O924   1.263   1_556  A
C925        C926   1.409       .  A
C925        C930   1.416       .  A
C925        H932   1.083       .  S
C926        C927   1.424       .  A
C927        C928   1.396       .  A
C927        N934   1.434       .  S
C928        C929   1.395       .  A
C928        H933   1.085       .  S
C929        C930   1.418       .  A
C930        N931   1.442       .  S
N931        O935   1.263       .  A
N931        O936   1.262       .  A
N934        O937   1.262       .  A
N934        O938   1.263       .  A
C939        C940   1.408       .  A
C939        C944   1.390       .  A
C939        H946   1.080       .  S
C940        C941   1.419       .  A
C941        C942   1.413       .  A
C941        N948   1.437       .  S
C942        C943   1.413       .  A
C942        H947   1.081       .  S
C943        C944   1.416       .  A
C944        N945   1.438       .  S
N945        O949   1.263       .  A
N945        O950   1.263       .  A
N948        O951   1.263       .  A
N948        O952   1.263       .  A
C953        C954   1.405       .  A
C953        C958   1.404       .  A
C953        H960   1.084       .  S
C954        C955   1.413       .  A
C955        C956   1.406       .  A
C955        N962   1.442       .  S
C956        C957   1.410       .  A
C956        H961   1.084       .  S
C957        C958   1.414       .  A
C958        N959   1.434       .  S
N959        O963   1.262       .  A
N959        O964   1.262       .  A
N962        O965   1.262       .  A
N962        O966   1.263       .  A
C967        C968   1.396       .  A
C967        C972   1.395       .  A
C967        H974   1.085       .  S
C968        C969   1.417       .  A
C969        C970   1.415       .  A
C969        N976   1.443       .  S
C970        C971   1.410       .  A
C970        H975   1.083       .  S
C971        C972   1.420       .  A
C972        N973   1.432       .  S
N973        O977   1.262       .  A
N973        O978   1.262       .  A
N976        O979   1.262       .  A
N976        O980   1.263       .  A
C981        C982   1.404       .  A
C981        C986   1.403       .  A
C981        H988   1.084       .  S
C982        C983   1.415       .  A
C983        C984   1.405       .  A
C983        N990   1.443       .  S
C984        C985   1.402       .  A
C984        H989   1.084       .  S
C985        C986   1.414       .  A
C986        N987   1.446       .  S
N987        O991   1.263       .  A
N987        O992   1.262       .  A
N990        O993   1.263       .  A
N990        O994   1.262       .  A
C995        C996   1.406       .  A
C995       C1000   1.414       .  A
C995       H1002   1.084       .  S
C996        C997   1.414       .  A
C997        C998   1.400       .  A
C997       N1004   1.445       .  S
C998        C999   1.409       .  A
C998       H1003   1.083       .  S
C999       C1000   1.418       .  A
C1000      N1001   1.438       .  S
N1001      O1005   1.263       .  A
N1001      O1006   1.263       .  A
N1004      O1007   1.262       .  A
N1004      O1008   1.263       .  A
C1009      C1010   1.402       .  A
C1009      C1014   1.400       .  A
C1009      H1016   1.084       .  S
C1010      C1011   1.414       .  A
C1011      C1012   1.405       .  A
C1011      N1018   1.440       .  S
C1012      C1013   1.408       .  A
C1012      H1017   1.083       .  S
C1013      C1014   1.417       .  A
C1014      N1015   1.434       .  S
N1015      O1019   1.262       .  A
N1015      O1020   1.263       .  A
N1018      O1021   1.263       .  A
N1018      O1022   1.263       .  A
C1023      C1024   1.403       .  A
C1023      C1028   1.403       .  A
C1023      H1030   1.084       .  S
C1024      C1025   1.414       .  A
C1025      C1026   1.408       .  A
C1025      N1032   1.440       .  S
C1026      C1027   1.412       .  A
C1026      H1031   1.083       .  S
C1027      C1028   1.419       .  A
C1028      N1029   1.433       .  S
N1029      O1033   1.262       .  A
N1029      O1034   1.263       .  A
N1032      O1035   1.263       .  A
N1032      O1036   1.263       .  A
C1037      C1038   1.396       .  A
C1037      C1042   1.405       .  A
C1037      H1044   1.084       .  S
C1038      C1039   1.412       .  A
C1039      C1040   1.397       .  A
C1039      N1046   1.431       .  S
C1040      C1041   1.398       .  A
C1040      H1045   1.084       .  S
C1041      C1042   1.423       .  A
C1042      N1043   1.439       .  S
N1043      O1047   1.263       .  A
N1043      O1048   1.263       .  A
N1046      O1049   1.261       .  A
N1046      O1050   1.262       .  A
C1051      C1052   1.405       .  A
C1051      C1056   1.398       .  A
C1051      H1058   1.084       .  S
C1052      C1053   1.420       .  A
C1053      C1054   1.413       .  A
C1053      N1060   1.439       .  S
C1054      C1055   1.408       .  A
C1054      H1059   1.083       .  S
C1055      C1056   1.416       .  A
C1056      N1057   1.439       .  S
N1057      O1061   1.263       .  A
N1057      O1062   1.263       .  A
N1060      O1063   1.261       .  A
N1060      O1064   1.263       .  A
C1065      C1066   1.410       .  A
C1065      C1070   1.403       .  A
C1065      H1072   1.083       .  S
C1066      C1067   1.416       .  A
C1067      C1068   1.400       .  A
C1067      N1074   1.435       .  S
C1068      C1069   1.405       .  A
C1068      H1073   1.084       .  S
C1069      C1070   1.414       .  A
C1070      N1071   1.439       .  S
N1071      O1075   1.263       .  A
N1071      O1076   1.263       .  A
N1074      O1077   1.263       .  A
N1074      O1078   1.263       .  A
C1079      C1080   1.400       .  A
C1079      C1084   1.404       .  A
C1079      H1086   1.084       .  S
C1080      C1081   1.416       .  A
C1081      C1082   1.401       .  A
C1081      N1088   1.439       .  S
C1082      C1083   1.399       .  A
C1082      H1087   1.084       .  S
C1083      C1084   1.417       .  A
C1084      N1085   1.439       .  S
N1085      O1089   1.263       .  A
N1085      O1090   1.262       .  A
N1088      O1091   1.262       .  A
N1088      O1092   1.263       .  A
C1093      C1094   1.408       .  A
C1093      C1098   1.405       .  A
C1093      H1100   1.084       .  S
C1094      C1095   1.415       .  A
C1095      C1096   1.404       .  A
C1095      N1102   1.436       .  S
C1096      C1097   1.406       .  A
C1096      H1101   1.084       .  S
C1097      C1098   1.414       .  A
C1098      N1099   1.434       .  S
N1099      O1103   1.262   1_545  A
N1099      O1104   1.262   1_545  A
N1102      O1105   1.262       .  A
N1102      O1106   1.263       .  A
C1107      C1108   1.406       .  A
C1107      C1112   1.410       .  A
C1107      H1114   1.083       .  S
C1108      C1109   1.414       .  A
C1109      C1110   1.399       .  A
C1109      N1116   1.438       .  S
C1110      C1111   1.401       .  A
C1110      H1115   1.084       .  S
C1111      C1112   1.420       .  A
C1112      N1113   1.449       .  S
N1113      O1117   1.263       .  A
N1113      O1118   1.262       .  A
N1116      O1119   1.263       .  A
N1116      O1120   1.263       .  A
C1121      C1122   1.398       .  A
C1121      C1126   1.399       .  A
C1121      H1128   1.085       .  S
C1122      C1123   1.417       .  A
C1123      C1124   1.414       .  A
C1123      N1130   1.443       .  S
C1124      C1125   1.410       .  A
C1124      H1129   1.083       .  S
C1125      C1126   1.421       .  A
C1126      N1127   1.431       .  S
N1127      O1131   1.262       .  A
N1127      O1132   1.263       .  A
N1130      O1133   1.263       .  A
N1130      O1134   1.263       .  A
C1135      C1136   1.403       .  A
C1135      C1140   1.398       .  A
C1135      H1142   1.084       .  S
C1136      C1137   1.419       .  A
C1137      C1138   1.411       .  A
C1137      N1144   1.437       .  S
C1138      C1139   1.405       .  A
C1138      H1143   1.083       .  S
C1139      C1140   1.418       .  A
C1140      N1141   1.438       .  S
N1141      O1145   1.263       .  A
N1141      O1146   1.263       .  A
N1144      O1147   1.263       .  A
N1144      O1148   1.262       .  A
C1149      C1150   1.402       .  A
C1149      C1154   1.399       .  A
C1149      H1156   1.085       .  S
C1150      C1151   1.422       .  A
C1151      C1152   1.416       .  A
C1151      N1158   1.441       .  S
C1152      C1153   1.407       .  A
C1152      H1157   1.083       .  S
C1153      C1154   1.420       .  A
C1154      N1155   1.437       .  S
N1155      O1159   1.263       .  A
N1155      O1160   1.263       .  A
N1158      O1161   1.261       .  A
N1158      O1162   1.263       .  A
C1163      C1164   1.404       .  A
C1163      C1168   1.414       .  A
C1163      H1170   1.083       .  S
C1164      C1165   1.414       .  A
C1165      C1166   1.398       .  A
C1165      N1172   1.442       .  S
C1166      C1167   1.407       .  A
C1166      H1171   1.083       .  S
C1167      C1168   1.422       .  A
C1168      N1169   1.437       .  S
N1169      O1173   1.263       .  A
N1169      O1174   1.262       .  A
N1172      O1175   1.263       .  A
N1172      O1176   1.263       .  A
C1177      C1178   1.402       .  A
C1177      C1182   1.405       .  A
C1177      H1184   1.084       .  S
C1178      C1179   1.418       .  A
C1179      C1180   1.402       .  A
C1179      N1186   1.443       .  S
C1180      C1181   1.400       .  A
C1180      H1185   1.084       .  S
C1181      C1182   1.416       .  A
C1182      N1183   1.439       .  S
N1183      O1187   1.262       .  A
N1183      O1188   1.263       .  A
N1186      O1189   1.263   1_655  A
N1186      O1190   1.263       .  A
C1191      C1192   1.410       .  A
C1191      C1196   1.401       .  A
C1191      H1198   1.083       .  S
C1192      C1193   1.417       .  A
C1193      C1194   1.411       .  A
C1193      N1200   1.432       .  S
C1194      C1195   1.406       .  A
C1194      H1199   1.084       .  S
C1195      C1196   1.413       .  A
C1196      N1197   1.441       .  S
N1197      O1201   1.263       .  A
N1197      O1202   1.263       .  A
N1200      O1203   1.262   1_455  A
N1200      O1204   1.262       .  A
C1205      C1206   1.402       .  A
C1205      C1210   1.396       .  A
C1205      H1212   1.085       .  S
C1206      C1207   1.411       .  A
C1207      C1208   1.408       .  A
C1207      N1214   1.442       .  S
C1208      C1209   1.412       .  A
C1208      H1213   1.083       .  S
C1209      C1210   1.414       .  A
C1210      N1211   1.440       .  S
N1211      O1215   1.263       .  A
N1211      O1216   1.263       .  A
N1214      O1217   1.262       .  A
N1214      O1218   1.263       .  A
C1219      C1220   1.410       .  A
C1219      C1224   1.410       .  A
C1219      H1226   1.083       .  S
C1220      C1221   1.414       .  A
C1221      C1222   1.407       .  A
C1221      N1228   1.437       .  S
C1222      C1223   1.406       .  A
C1222      H1227   1.084       .  S
C1223      C1224   1.417       .  A
C1224      N1225   1.444       .  S
N1225      O1229   1.263       .  A
N1225      O1230   1.261       .  A
N1228      O1231   1.263       .  A
N1228      O1232   1.262       .  A
C1233      C1234   1.403       .  A
C1233      C1238   1.405       .  A
C1233      H1240   1.084       .  S
C1234      C1235   1.412       .  A
C1235      C1236   1.400       .  A
C1235      N1242   1.441       .  S
C1236      C1237   1.405       .  A
C1236      H1241   1.084       .  S
C1237      C1238   1.416       .  A
C1238      N1239   1.436       .  S
N1239      O1243   1.262       .  A
N1239      O1244   1.262       .  A
N1242      O1245   1.263       .  A
N1242      O1246   1.263       .  A
C1247      C1248   1.414       .  A
C1247      C1252   1.397       .  A
C1247      H1254   1.081       .  S
C1248      C1249   1.424       .  A
C1249      C1250   1.411       .  A
C1249      N1256   1.434       .  S
C1250      C1251   1.402       .  A
C1250      H1255   1.084       .  S
C1251      C1252   1.407       .  A
C1252      N1253   1.443   1_565  S
N1253      O1257   1.263   1_545  A
N1253      O1258   1.263       .  A
N1256      O1259   1.263       .  A
N1256      O1260   1.262       .  A
C1261      C1262   1.404       .  A
C1261      C1266   1.400       .  A
C1261      H1268   1.084       .  S
C1262      C1263   1.420       .  A
C1263      C1264   1.409       .  A
C1263      N1270   1.440   1_655  S
C1264      C1265   1.405       .  A
C1264      H1269   1.083   1_655  S
C1265      C1266   1.413       .  A
C1266      N1267   1.431       .  S
N1267      O1271   1.262       .  A
N1267      O1272   1.262       .  A
N1270      O1273   1.263       .  A
N1270      O1274   1.263       .  A
C1275      C1276   1.404       .  A
C1275      C1280   1.393       .  A
C1275      H1282   1.085       .  S
C1276      C1277   1.415       .  A
C1277      C1278   1.407       .  A
C1277      N1284   1.433       .  S
C1278      C1279   1.402       .  A
C1278      H1283   1.084       .  S
C1279      C1280   1.410       .  A
C1280      N1281   1.435       .  S
N1281      O1285   1.262       .  A
N1281      O1286   1.262       .  A
N1284      O1287   1.262       .  A
N1284      O1288   1.262       .  A
C1289      C1290   1.407       .  A
C1289      C1294   1.413       .  A
C1289      H1296   1.083       .  S
C1290      C1291   1.416       .  A
C1291      C1292   1.396       .  A
C1291      N1298   1.438       .  S
C1292      C1293   1.404       .  A
C1292      H1297   1.084       .  S
C1293      C1294   1.419       .  A
C1294      N1295   1.439       .  S
N1295      O1299   1.263       .  A
N1295      O1300   1.262       .  A
N1298      O1301   1.263       .  A
N1298      O1302   1.263   1_556  A
C1303      C1304   1.401       .  A
C1303      C1308   1.401       .  A
C1303      H1310   1.084       .  S
C1304      C1305   1.418       .  A
C1305      C1306   1.412       .  A
C1305      N1312   1.441   1_565  S
C1306      C1307   1.407       .  A
C1306      H1311   1.083   1_565  S
C1307      C1308   1.419       .  A
C1308      N1309   1.437       .  S
N1309      O1313   1.263       .  A
N1309      O1314   1.263       .  A
N1312      O1315   1.263   1_545  A
N1312      O1316   1.263       .  A
C1317      C1318   1.408       .  A
C1317      C1322   1.405       .  A
C1317      H1324   1.083       .  S
C1318      C1319   1.415       .  A
C1319      C1320   1.395       .  A
C1319      N1326   1.433       .  S
C1320      C1321   1.400       .  A
C1320      H1325   1.084       .  S
C1321      C1322   1.414       .  A
C1322      N1323   1.442       .  S
N1323      O1327   1.263       .  A
N1323      O1328   1.263       .  A
N1326      O1329   1.262       .  A
N1326      O1330   1.262       .  A
C1331      C1332   1.403       .  A
C1331      C1336   1.409       .  A
C1331      H1338   1.084       .  S
C1332      C1333   1.411       .  A
C1333      C1334   1.401       .  A
C1333      N1340   1.442       .  S
C1334      C1335   1.411       .  A
C1334      H1339   1.082       .  S
C1335      C1336   1.419       .  A
C1336      N1337   1.436   1_556  S
N1337      O1341   1.263       .  A
N1337      O1342   1.263       .  A
N1340      O1343   1.262       .  A
N1340      O1344   1.263       .  A
C1345      C1346   1.399       .  A
C1345      C1350   1.398       .  A
C1345      H1352   1.084       .  S
C1346      C1347   1.416       .  A
C1347      C1348   1.405       .  A
C1347      N1354   1.440       .  S
C1348      C1349   1.407       .  A
C1348      H1353   1.083       .  S
C1349      C1350   1.420       .  A
C1350      N1351   1.436       .  S
N1351      O1355   1.263       .  A
N1351      O1356   1.262       .  A
N1354      O1357   1.263       .  A
N1354      O1358   1.263       .  A
C1359      C1360   1.403       .  A
C1359      C1364   1.401       .  A
C1359      H1366   1.084       .  S
C1360      C1361   1.418       .  A
C1361      C1362   1.409   1_655  A
C1361      N1368   1.440   1_655  S
C1362      C1363   1.405   1_455  A
C1362      H1367   1.083       .  S
C1363      C1364   1.416       .  A
C1364      N1365   1.438       .  S
N1365      O1369   1.263       .  A
N1365      O1370   1.263       .  A
N1368      O1371   1.263       .  A
N1368      O1372   1.263       .  A
C1373      C1374   1.406       .  A
C1373      C1378   1.405       .  A
C1373      H1380   1.083       .  S
C1374      C1375   1.419       .  A
C1375      C1376   1.397       .  A
C1375      N1382   1.431       .  S
C1376      C1377   1.401       .  A
C1376      H1381   1.084       .  S
C1377      C1378   1.418       .  A
C1378      N1379   1.439       .  S
N1379      O1383   1.263       .  A
N1379      O1384   1.263       .  A
N1382      O1385   1.262       .  A
N1382      O1386   1.262       .  A
C1387      C1388   1.407       .  A
C1387      C1392   1.401       .  A
C1387      H1394   1.083       .  S
C1388      C1389   1.420       .  A
C1389      C1390   1.408       .  A
C1389      N1396   1.437       .  S
C1390      C1391   1.402       .  A
C1390      H1395   1.084       .  S
C1391      C1392   1.412       .  A
C1392      N1393   1.440       .  S
N1393      O1397   1.262       .  A
N1393      O1398   1.263       .  A
N1396      O1399   1.263       .  A
N1396      O1400   1.263       .  A
C1401      C1402   1.403       .  A
C1401      C1406   1.405       .  A
C1401      H1408   1.084       .  S
C1402      C1403   1.415       .  A
C1403      C1404   1.402       .  A
C1403      N1410   1.440       .  S
C1404      C1405   1.400       .  A
C1404      H1409   1.084       .  S
C1405      C1406   1.415       .  A
C1406      N1407   1.443       .  S
N1407      O1411   1.263       .  A
N1407      O1412   1.262       .  A
N1410      O1413   1.263       .  A
N1410      O1414   1.263       .  A
C1415      C1416   1.408       .  A
C1415      C1420   1.407       .  A
C1415      H1422   1.083       .  S
C1416      C1417   1.414       .  A
C1417      C1418   1.401       .  A
C1417      N1424   1.438       .  S
C1418      C1419   1.403       .  A
C1418      H1423   1.084       .  S
C1419      C1420   1.414       .  A
C1420      N1421   1.443       .  S
N1421      O1425   1.263       .  A
N1421      O1426   1.262       .  A
N1424      O1427   1.263       .  A
N1424      O1428   1.262       .  A
C1429      C1430   1.406       .  A
C1429      C1434   1.410       .  A
C1429      H1436   1.083       .  S
C1430      C1431   1.415       .  A
C1431      C1432   1.399       .  A
C1431      N1438   1.440       .  S
C1432      C1433   1.400       .  A
C1432      H1437   1.084       .  S
C1433      C1434   1.416       .  A
C1434      N1435   1.443       .  S
N1435      O1439   1.263       .  A
N1435      O1440   1.262       .  A
N1438      O1441   1.263       .  A
N1438      O1442   1.263       .  A
C1443      C1444   1.407       .  A
C1443      C1448   1.407       .  A
C1443      H1450   1.083       .  S
C1444      C1445   1.415       .  A
C1445      C1446   1.398       .  A
C1445      N1452   1.438       .  S
C1446      C1447   1.401       .  A
C1446      H1451   1.084       .  S
C1447      C1448   1.415       .  A
C1448      N1449   1.442       .  S
N1449      O1453   1.263       .  A
N1449      O1454   1.262       .  A
N1452      O1455   1.263       .  A
N1452      O1456   1.262       .  A
C1457      C1458   1.412       .  A
C1457      C1462   1.411       .  A
C1457      H1464   1.082       .  S
C1458      C1459   1.413       .  A
C1459      C1460   1.394       .  A
C1459      N1466   1.439       .  S
C1460      C1461   1.413       .  A
C1460      H1465   1.080       .  S
C1461      C1462   1.418       .  A
C1462      N1463   1.436       .  S
N1463      O1467   1.263       .  A
N1463      O1468   1.263       .  A
N1466      O1469   1.263       .  A
N1466      O1470   1.263       .  A
C1471      C1472   1.400       .  A
C1471      C1476   1.401       .  A
C1471      H1478   1.084       .  S
C1472      C1473   1.416       .  A
C1473      C1474   1.408       .  A
C1473      N1480   1.444       .  S
C1474      C1475   1.404       .  A
C1474      H1479   1.084       .  S
C1475      C1476   1.416       .  A
C1476      N1477   1.442       .  S
N1477      O1481   1.263       .  A
N1477      O1482   1.263       .  A
N1480      O1483   1.262       .  A
N1480      O1484   1.263       .  A
C1485      C1486   1.401       .  A
C1485      C1490   1.402       .  A
C1485      H1492   1.084       .  S
C1486      C1487   1.417       .  A
C1487      C1488   1.408       .  A
C1487      N1494   1.445       .  S
C1488      C1489   1.403       .  A
C1488      H1493   1.084       .  S
C1489      C1490   1.414       .  A
C1490      N1491   1.441       .  S
N1491      O1495   1.263       .  A
N1491      O1496   1.263       .  A
N1494      O1497   1.262       .  A
N1494      O1498   1.263       .  A
C1499      C1500   1.404       .  A
C1499      C1504   1.405       .  A
C1499      H1506   1.084       .  S
C1500      C1501   1.417       .  A
C1501      C1502   1.405       .  A
C1501      N1508   1.445       .  S
C1502      C1503   1.403       .  A
C1502      H1507   1.084       .  S
C1503      C1504   1.415       .  A
C1504      N1505   1.442       .  S
N1505      O1509   1.263       .  A
N1505      O1510   1.262       .  A
N1508      O1511   1.261       .  A
N1508      O1512   1.263       .  A
C1513      C1514   1.406       .  A
C1513      C1518   1.399       .  A
C1513      H1520   1.084       .  S
C1514      C1515   1.414       .  A
C1515      C1516   1.410       .  A
C1515      N1522   1.437       .  S
C1516      C1517   1.406       .  A
C1516      H1521   1.084       .  S
C1517      C1518   1.413       .  A
C1518      N1519   1.441       .  S
N1519      O1523   1.263       .  A
N1519      O1524   1.261       .  A
N1522      O1525   1.263       .  A
N1522      O1526   1.262       .  A
C1527      C1528   1.403       .  A
C1527      C1532   1.401       .  A
C1527      H1534   1.084       .  S
C1528      C1529   1.417       .  A
C1529      C1530   1.407       .  A
C1529      N1536   1.442       .  S
C1530      C1531   1.402       .  A
C1530      H1535   1.084       .  S
C1531      C1532   1.412       .  A
C1532      N1533   1.437       .  S
N1533      O1537   1.263       .  A
N1533      O1538   1.262       .  A
N1536      O1539   1.262       .  A
N1536      O1540   1.263       .  A
C1541      C1542   1.402       .  A
C1541      C1546   1.405       .  A
C1541      H1548   1.084       .  S
C1542      C1543   1.416       .  A
C1543      C1544   1.404       .  A
C1543      N1550   1.439       .  S
C1544      C1545   1.402       .  A
C1544      H1549   1.084       .  S
C1545      C1546   1.419       .  A
C1546      N1547   1.446       .  S
N1547      O1551   1.263       .  A
N1547      O1552   1.262       .  A
N1550      O1553   1.263       .  A
N1550      O1554   1.262       .  A
C1555      C1556   1.401       .  A
C1555      C1560   1.405       .  A
C1555      H1562   1.084       .  S
C1556      C1557   1.416       .  A
C1557      C1558   1.399       .  A
C1557      N1564   1.439       .  S
C1558      C1559   1.398       .  A
C1558      H1563   1.084       .  S
C1559      C1560   1.416       .  A
C1560      N1561   1.442       .  S
N1561      O1565   1.263       .  A
N1561      O1566   1.262       .  A
N1564      O1567   1.263       .  A
N1564      O1568   1.263       .  A
C1569      C1570   1.404       .  A
C1569      C1574   1.407       .  A
C1569      H1576   1.084       .  S
C1570      C1571   1.413       .  A
C1571      C1572   1.399       .  A
C1571      N1578   1.440       .  S
C1572      C1573   1.401       .  A
C1572      H1577   1.084       .  S
C1573      C1574   1.415       .  A
C1574      N1575   1.443       .  S
N1575      O1579   1.263       .  A
N1575      O1580   1.262       .  A
N1578      O1581   1.263       .  A
N1578      O1582   1.263       .  A
C1583      C1584   1.404       .  A
C1583      C1588   1.388       .  A
C1583      H1590   1.084       .  S
C1584      C1585   1.415       .  A
C1585      C1586   1.412       .  A
C1585      N1592   1.437       .  S
C1586      C1587   1.417       .  A
C1586      H1591   1.081       .  S
C1587      C1588   1.418       .  A
C1588      N1589   1.432       .  S
N1589      O1593   1.261       .  A
N1589      O1594   1.263       .  A
N1592      O1595   1.263       .  A
N1592      O1596   1.263       .  A
C1597      C1598   1.403       .  A
C1597      C1602   1.406       .  A
C1597      H1604   1.084       .  S
C1598      C1599   1.409       .  A
C1599      C1600   1.398       .  A
C1599      N1606   1.442       .  S
C1600      C1601   1.410       .  A
C1600      H1605   1.084       .  S
C1601      C1602   1.416       .  A
C1602      N1603   1.435       .  S
N1603      O1607   1.263       .  A
N1603      O1608   1.262       .  A
N1606      O1609   1.262       .  A
N1606      O1610   1.263       .  A
C1611      C1612   1.401       .  A
C1611      C1616   1.402       .  A
C1611      H1618   1.084       .  S
C1612      C1613   1.415       .  A
C1613      C1614   1.406       .  A
C1613      N1620   1.444       .  S
C1614      C1615   1.405       .  A
C1614      H1619   1.084       .  S
C1615      C1616   1.414       .  A
C1616      N1617   1.440       .  S
N1617      O1621   1.263       .  A
N1617      O1622   1.263       .  A
N1620      O1623   1.262       .  A
N1620      O1624   1.263       .  A
C1625      C1626   1.402       .  A
C1625      C1630   1.406       .  A
C1625      H1632   1.084       .  S
C1626      C1627   1.413       .  A
C1627      C1628   1.400       .  A
C1627      N1634   1.439       .  S
C1628      C1629   1.401       .  A
C1628      H1633   1.084       .  S
C1629      C1630   1.417       .  A
C1630      N1631   1.441       .  S
N1631      O1635   1.263       .  A
N1631      O1636   1.263       .  A
N1634      O1637   1.262       .  A
N1634      O1638   1.263       .  A
C1639      C1640   1.399       .  A
C1639      C1644   1.399       .  A
C1639      H1646   1.084       .  S
C1640      C1641   1.416       .  A
C1641      C1642   1.407       .  A
C1641      N1648   1.443       .  S
C1642      C1643   1.405       .  A
C1642      H1647   1.083       .  S
C1643      C1644   1.416       .  A
C1644      N1645   1.440       .  S
N1645      O1649   1.263       .  A
N1645      O1650   1.263       .  A
N1648      O1651   1.262       .  A
N1648      O1652   1.263       .  A
C1653      C1654   1.403       .  A
C1653      C1658   1.406       .  A
C1653      H1660   1.084       .  S
C1654      C1655   1.414       .  A
C1655      C1656   1.402       .  A
C1655      N1662   1.444       .  S
C1656      C1657   1.404       .  A
C1656      H1661   1.084       .  S
C1657      C1658   1.415       .  A
C1658      N1659   1.441       .  S
N1659      O1663   1.263       .  A
N1659      O1664   1.262       .  A
N1662      O1665   1.262       .  A
N1662      O1666   1.263       .  A
C1667      C1668   1.402       .  A
C1667      C1672   1.405       .  A
C1667      H1674   1.084       .  S
C1668      C1669   1.413       .  A
C1669      C1670   1.402       .  A
C1669      N1676   1.443       .  S
C1670      C1671   1.405       .  A
C1670      H1675   1.084       .  S
C1671      C1672   1.416       .  A
C1672      N1673   1.439       .  S
N1673      O1677   1.263       .  A
N1673      O1678   1.263       .  A
N1676      O1679   1.262       .  A
N1676      O1680   1.263       .  A
