geometry optimzed in LAMMPS
_audit_creation_date              2020-11-30 
_audit_creation_method            'lammps2cif' 
_symmetry_space_group_name_H-M    'P1' 
_symmetry_Int_Tables_number       1 
_symmetry_cell_setting            triclinic 
loop_ 
_symmetry_equiv_pos_as_xyz 
  x,y,z 
_cell_length_a                    42.53954354 
_cell_length_b                    42.7626104921034 
_cell_length_c                    42.74751602003772 
_cell_angle_alpha                 89.6963980290937 
_cell_angle_beta                  89.93998787793352 
_cell_angle_gamma                 91.04886611186886 
loop_ 
_atom_site_label 
_atom_site_type_symbol 
_atom_site_fract_x 
_atom_site_fract_y 
_atom_site_fract_z 
_atom_site_charge 
O1          O  0.52864061  0.04808624  0.82995241    -0.86800
O2          O  0.52873499  0.04651928  0.65276101    -0.87000
O3          O  0.59135229  0.03757420  0.73608397    -0.88600
O4          O  0.51881578  0.10874122  0.74718984    -0.87400
O5          O  0.46478958  0.10746308  0.74521934    -0.87000
O6          O  0.59130437  0.98396660  0.73753027    -0.88300
O7          O  0.55499455  0.07433303  0.69084025    -0.86800
O8          O  0.55776365  0.07163438  0.79094959    -0.86400
Zr9        Zr  0.53708182  0.05485987  0.74116190     2.84300
O10         O  0.49262366  0.05446482  0.70884511    -1.08400
O11         O  0.53725052  0.01102918  0.77427111    -1.09100
C12         C  0.55062058  0.06689139  0.81990802     1.06300
C13         C  0.54880099  0.06752817  0.66215604     1.06300
C14         C  0.60519150  0.01094228  0.73451894     1.09200
C15         C  0.49160593  0.12175717  0.74880936     1.07000
H16         H  0.55538352  0.00991561  0.69725210     0.32600
O17         O  0.53716339  0.00977657  0.71070535    -1.29300
H18         H  0.49223909  0.07182614  0.78539676     0.32300
O19         O  0.49217605  0.05354848  0.77237568    -1.31000
O20         O  0.45860130  0.97073758  0.65389005    -0.86800
O21         O  0.45439162  0.97517425  0.83213979    -0.88300
O22         O  0.55421523  0.94509186  0.69436930    -0.86900
O23         O  0.43078527  0.07154463  0.68995443    -0.86900
O24         O  0.42784570  0.07075027  0.78971687    -0.86600
O25         O  0.56010410  0.95332147  0.79377886    -0.86400
O26         O  0.46541696  0.90958767  0.74796732    -0.86800
O27         O  0.39352103  0.97968503  0.73932054    -0.86300
O28         O  0.51935699  0.91119795  0.74935085    -0.87300
O29         O  0.39313625  0.03329701  0.73764014    -0.86500
O30         O  0.53104159  0.97322928  0.65485992    -0.86900
O31         O  0.53083863  0.97703284  0.83184255    -0.86600
O32         O  0.45688704  0.04928428  0.82901103    -0.86200
O33         O  0.45634038  0.04418219  0.65210343    -0.86700
O34         O  0.43126739  0.94428075  0.69225227    -0.87000
O35         O  0.42656790  0.94857847  0.79430571    -0.88300
Zr36       Zr  0.49311907  0.00889498  0.67856812     2.83100
Zr37       Zr  0.49209542  0.01053482  0.80592084     2.83500
Zr38       Zr  0.53699140  0.96586999  0.74367794     2.84100
Zr39       Zr  0.44766891  0.05257929  0.74051606     2.83400
Zr40       Zr  0.44794046  0.96369308  0.74320420     2.84200
O41         O  0.44724603  0.00889682  0.77385615    -1.08900
O42         O  0.49274619  0.96435382  0.71129868    -1.08400
C43         C  0.43837252  0.94989019  0.66336073     1.06300
C44         C  0.43300937  0.95526592  0.82309075     1.08900
C45         C  0.54975120  0.95204908  0.66542138     1.06500
C46         C  0.43655007  0.06498604  0.66112749     1.06800
C47         C  0.43574499  0.06820861  0.81856195     1.06400
C48         C  0.55354424  0.95954277  0.82246549     1.06000
C49         C  0.49248172  0.89657024  0.75091641     1.06400
C50         C  0.37936884  0.00606549  0.73712221     1.05900
H51         H  0.49234286  0.94730924  0.78952213     0.32600
O52         O  0.49230793  0.96516779  0.77562294    -1.30000
H53         H  0.42985417  0.00698228  0.69662446     0.32600
O54         O  0.44811520  0.00757332  0.71001376    -1.31300
C55         C  0.64395192  0.20797099  0.49519154    -0.02800
O56         O  0.55987415  0.08173929  0.29390662    -0.86800
O57         O  0.43485603  0.95302090  0.29913965    -0.87000
O58         O  0.46553487  0.05307993  0.33602455    -0.88600
O59         O  0.53634333  0.97943700  0.33501257    -0.87400
O60         O  0.55885133  0.95031610  0.29655860    -0.87000
O61         O  0.43951602  0.08011652  0.29758946    -0.88300
O62         O  0.46139850  0.98117815  0.33661472    -0.86800
O63         O  0.53468797  0.05521062  0.33382750    -0.86400
Zr64       Zr  0.49969405  0.01573972  0.31016413     2.84300
O65         O  0.49727282  0.97019957  0.27943335    -1.08400
O66         O  0.50072588  0.05993546  0.27736316    -1.09100
C67         C  0.55339097  0.07693909  0.32301476     1.06300
C68         C  0.44048411  0.96067324  0.32779302     1.06300
C69         C  0.44593577  0.07380278  0.32643312     1.09200
C70         C  0.55475210  0.95765859  0.32548154     1.07000
H71         H  0.43659985  0.01667473  0.29254858     0.32600
O72         O  0.45467177  0.01615873  0.27890929    -1.29300
H73         H  0.56226219  0.01508486  0.29097824     0.32300
O74         O  0.54386560  0.01497914  0.27778357    -1.31000
O75         O  0.43052259  0.95480963  0.19783655    -0.86800
O76         O  0.56738928  0.07195930  0.19394840    -0.88300
O77         O  0.40028033  0.04402356  0.25210968    -0.86900
O78         O  0.52242993  0.91614789  0.24119462    -0.86900
O79         O  0.59664626  0.98684002  0.25020172    -0.86600
O80         O  0.47626078  0.11436259  0.24199289    -0.86400
O81         O  0.46104054  0.05243221  0.15787400    -0.86800
O82         O  0.53048048  0.97500542  0.15796682    -0.86300
O83         O  0.43365892  0.07680849  0.19696927    -0.87300
O84         O  0.55977180  0.95258670  0.19653662    -0.86500
O85         O  0.39842745  0.99056001  0.25265021    -0.86900
O86         O  0.53018844  0.11302993  0.23931393    -0.86600
O87         O  0.59833901  0.04041163  0.24959134    -0.86200
O88         O  0.46840605  0.91640258  0.24239705    -0.86700
O89         O  0.45748456  0.98058320  0.15846011    -0.87000
O90         O  0.53702996  0.04834421  0.15606375    -0.88300
Zr91       Zr  0.45215602  0.97124259  0.24786230     2.83100
Zr92       Zr  0.54471635  0.05858515  0.24453011     2.83500
Zr93       Zr  0.45540698  0.06053086  0.24666819     2.84100
Zr94       Zr  0.54139029  0.97027636  0.24657806     2.83400
Zr95       Zr  0.49724138  0.01493494  0.18232391     2.84200
O96         O  0.54286714  0.01396416  0.21331572    -1.08900
O97         O  0.45300574  0.01568748  0.21540382    -1.08400
C98         C  0.43614830  0.96117479  0.16878513     1.06300
C99         C  0.56036935  0.06591573  0.16524660     1.08900
C100        C  0.38530885  0.01758590  0.25477598     1.06500
C101        C  0.49510124  0.90255761  0.23933752     1.06800
C102        C  0.61143901  0.01347476  0.25175339     1.06400
C103        C  0.50380317  0.12739703  0.23860673     1.06000
C104        C  0.43996967  0.07151024  0.16801151     1.06400
C105        C  0.55147736  0.95558182  0.16782707     1.05900
H106        H  0.49981678  0.07750154  0.19992781     0.32600
O107        O  0.49938551  0.05950090  0.21358187    -1.30000
H108        H  0.49537196  0.95321903  0.20236380     0.32600
O109        O  0.49627419  0.97136676  0.21548304    -1.31300
C110        C  0.30371474  0.85595749  0.00049924    -0.02800
C111        C  0.67690287  0.85409856  0.99482225    -0.02800
C112        C  0.64529597  0.82365865  0.49546516    -0.02800
C113        C  0.31038587  0.16406058  0.99404007    -0.02800
C114        C  0.68741778  0.16222965  0.98532040    -0.02800
C115        C  0.33902240  0.20003821  0.49399908    -0.02800
C116        C  0.34076199  0.81753284  0.49158052    -0.02800
O117        O  0.89449017  0.76471578  0.46710793    -0.86800
O118        O  0.01636498  0.75791853  0.59644706    -0.87000
O119        O  0.92606121  0.71004633  0.55468000    -0.88600
O120        O  0.93009997  0.81034574  0.55948915    -0.87400
O121        O  0.95673288  0.84997730  0.53390599    -0.87000
O122        O  0.95631496  0.67238189  0.53183768    -0.88300
O123        O  0.96247445  0.75642360  0.59454704    -0.86800
O124        O  0.89300737  0.76585183  0.52064767    -0.86400
Zr125      Zr  0.94713387  0.76080825  0.53961132     2.84300
O126        O  0.99194527  0.79340739  0.54190919    -1.08400
O127        O  0.94809345  0.72888090  0.49542122    -1.09100
C128        C  0.87978853  0.76769239  0.49343031     1.06300
C129        C  0.98890852  0.75542442  0.60941290     1.06300
C130        C  0.93383252  0.68155489  0.54964795     1.09200
C131        C  0.93663616  0.83941773  0.55436036     1.07000
H132        H  0.99124926  0.71660839  0.55925380     0.32600
O133        O  0.99197696  0.73002979  0.54104629    -1.29300
H134        H  0.93084824  0.80587018  0.49490246     0.32300
O135        O  0.94909644  0.79281464  0.49530028    -1.31000
O136        O  0.09190981  0.76767448  0.52593842    -0.86800
O137        O  0.96976474  0.75782736  0.39711574    -0.88300
O138        O  0.02834258  0.67369282  0.53445167    -0.86900
O139        O  0.02784068  0.85087264  0.53697410    -0.86900
O140        O  0.95778649  0.85054149  0.46085300    -0.86600
O141        O  0.95541409  0.67187400  0.46240287    -0.86400
O142        O  0.06035597  0.71297963  0.43829721    -0.86800
O143        O  0.05468906  0.81368016  0.43256897    -0.86300
O144        O  0.03111605  0.67372068  0.46187647    -0.87300
O145        O  0.03032873  0.85193428  0.46028256    -0.86500
O146        O  0.05508732  0.71220625  0.56133932    -0.86900
O147        O  0.92899416  0.70924134  0.43509257    -0.86600
O148        O  0.93479957  0.81160368  0.43111531    -0.86200
O149        O  0.05224790  0.81250935  0.56515328    -0.86700
O150        O  0.09263445  0.76858525  0.47213970    -0.87000
O151        O  0.02344763  0.76135419  0.39942001    -0.88300
Zr152      Zr  0.03680369  0.76248959  0.54293511     2.83100
Zr153      Zr  0.94966080  0.76073339  0.45089263     2.83500
Zr154      Zr  0.99342070  0.69843988  0.49671086     2.84100
Zr155      Zr  0.99366626  0.82580779  0.49745651     2.83400
Zr156      Zr  0.03890909  0.76305413  0.45395422     2.84200
O157        O  0.99420984  0.79380843  0.45286494    -1.08900
O158        O  0.03849385  0.73086683  0.49837275    -1.08400
C159        C  0.10597612  0.77021529  0.49913178     1.06300
C160        C  0.99742308  0.75801213  0.38434267     1.08900
C161        C  0.04814793  0.68334655  0.55538222     1.06500
C162        C  0.04637626  0.84136268  0.55902845     1.06800
C163        C  0.93947275  0.84043296  0.43886499     1.06400
C164        C  0.93451269  0.68037096  0.44227496     1.06000
C165        C  0.05323213  0.68393618  0.44351428     1.06400
C166        C  0.04953432  0.84259743  0.43873803     1.05900
H167        H  0.99515796  0.71674468  0.43376789     0.32600
O168        O  0.99455142  0.72995634  0.45197686    -1.30000
H169        H  0.05624531  0.80858043  0.49873277     0.32600
O170        O  0.03799972  0.79467648  0.49844386    -1.31300
O171        O  0.89432924  0.25681550  0.47464100    -0.86800
O172        O  0.02160690  0.26561382  0.59875648    -0.87000
O173        O  0.93387962  0.20982394  0.56576201    -0.88600
O174        O  0.93078016  0.31197014  0.56266324    -0.87400
O175        O  0.95723491  0.35124864  0.53607232    -0.87000
O176        O  0.96045827  0.17235466  0.53859126    -0.88300
O177        O  0.96795563  0.26271387  0.59965320    -0.86800
O178        O  0.89513724  0.25569893  0.52827975    -0.86400
Zr179      Zr  0.94966536  0.26128683  0.54552334     2.84300
O180        O  0.99365121  0.29509744  0.54487165    -1.08400
O181        O  0.94919946  0.22965824  0.50103648    -1.09100
C182        C  0.88080028  0.25454314  0.50163899     1.06300
C183        C  0.99499323  0.26458758  0.61342155     1.06300
C184        C  0.94107135  0.18115136  0.56005966     1.09200
C185        C  0.93687717  0.34108113  0.55635863     1.07000
H186        H  0.99575401  0.21823563  0.56345806     0.32600
O187        O  0.99487701  0.23103840  0.54481734    -1.29300
H188        H  0.92976939  0.30591762  0.50131308     0.32300
O189        O  0.94865681  0.29372702  0.50116364    -1.31000
O190        O  0.09304374  0.26176957  0.52633069    -0.86800
O191        O  0.96565727  0.26788404  0.40278077    -0.88300
O192        O  0.03396746  0.17587198  0.53428706    -0.86900
O193        O  0.03118582  0.35329228  0.53540623    -0.86900
O194        O  0.95681098  0.35143993  0.46370545    -0.86600
O195        O  0.95760333  0.17371628  0.46333436    -0.86400
O196        O  0.05619690  0.21343900  0.43652994    -0.86800
O197        O  0.05552487  0.31400506  0.43577184    -0.86300
O198        O  0.02985935  0.17418672  0.46280825    -0.87300
O199        O  0.02719157  0.35183560  0.46036721    -0.86500
O200        O  0.05938610  0.21585706  0.55983967    -0.86900
O201        O  0.93145834  0.21196668  0.43656410    -0.86600
O202        O  0.92881218  0.31233766  0.43963445    -0.86200
O203        O  0.05844465  0.31533430  0.56132416    -0.86700
O204        O  0.09306386  0.26114458  0.47266784    -0.87000
O205        O  0.01963361  0.26640333  0.40148801    -0.88300
Zr206      Zr  0.03863655  0.26495760  0.54389409     2.83100
Zr207      Zr  0.94862590  0.26211179  0.45684187     2.83500
Zr208      Zr  0.99436111  0.19908979  0.50011130     2.84100
Zr209      Zr  0.99360553  0.32674085  0.49997865     2.83400
Zr210      Zr  0.03826369  0.26360408  0.45538400     2.84200
O211        O  0.99338679  0.29432666  0.45615880    -1.08900
O212        O  0.03848893  0.23249569  0.50006217    -1.08400
C213        C  0.10696650  0.25994839  0.49954228     1.06300
C214        C  0.99239309  0.26902207  0.38852807     1.08900
C215        C  0.05488889  0.18679224  0.55351358     1.06500
C216        C  0.05220631  0.34411932  0.55525970     1.06800
C217        C  0.93551909  0.34145127  0.44434343     1.06400
C218        C  0.93791821  0.18318353  0.44235578     1.06000
C219        C  0.04982831  0.18431594  0.44202635     1.06400
C220        C  0.04742522  0.34252580  0.43994835     1.05900
H221        H  0.99334680  0.21860522  0.43661210     0.32600
O222        O  0.99348640  0.23109777  0.45536278    -1.30000
H223        H  0.05783535  0.30965073  0.49871708     0.32600
O224        O  0.03914372  0.29648398  0.49915818    -1.31300
C225        C  0.80225032  0.50899198  0.65009188    -0.02800
C226        C  0.18228591  0.51916743  0.65540813    -0.02800
C227        C  0.84411045  0.01244922  0.30916253    -0.02800
C228        C  0.84040224  0.00439403  0.68995471    -0.02800
C229        C  0.79876019  0.50670373  0.34031858    -0.02800
C230        C  0.18411908  0.51086680  0.34774653    -0.02800
C231        C  0.15058060  0.01882006  0.30656543    -0.02800
C232        C  0.14638963  0.01878601  0.68556499    -0.02800
O233        O  0.74251673  0.60674026  0.96295432    -0.86800
O234        O  0.74542433  0.48509167  0.09381660    -0.87000
O235        O  0.69196130  0.57200411  0.05431184    -0.88600
O236        O  0.79402788  0.57390847  0.05487111    -0.87400
O237        O  0.83223944  0.54273076  0.03393157    -0.87000
O238        O  0.65451682  0.54600853  0.02578375    -0.88300
O239        O  0.74682548  0.53872947  0.09155432    -0.86800
O240        O  0.73847559  0.60851849  0.01622634    -0.86400
Zr241      Zr  0.74334594  0.55477819  0.03666684     2.84300
O242        O  0.77414306  0.50993506  0.03893836    -1.08400
O243        O  0.71403291  0.55299972  0.99079919    -1.09100
C244        C  0.73784502  0.62155056  0.98875056     1.06300
C245        C  0.74780561  0.51242077  0.10657878     1.06300
C246        C  0.66303868  0.56598245  0.04680066     1.09200
C247        C  0.82265675  0.56512781  0.05148345     1.07000
H248        H  0.69712959  0.51084602  0.05575811     0.32600
O249        O  0.71052294  0.51023454  0.03752690    -1.29300
H250        H  0.79064848  0.57170023  0.99396638     0.32300
O251        O  0.77755657  0.55304610  0.99372307    -1.31000
O252        O  0.73438652  0.41091272  0.02409509    -0.86800
O253        O  0.75082805  0.53233469  0.89427782    -0.88300
O254        O  0.65318587  0.47403065  0.02853520    -0.86900
O255        O  0.83161561  0.47169334  0.03387117    -0.86900
O256        O  0.83666763  0.54565607  0.96301546    -0.86600
O257        O  0.65838645  0.54916401  0.95656967    -0.86400
O258        O  0.69442451  0.44743351  0.92800218    -0.86800
O259        O  0.79462638  0.44160458  0.93652976    -0.86300
O260        O  0.65536746  0.47434562  0.95244376    -0.87300
O261        O  0.83369426  0.46992001  0.96098819    -0.86500
O262        O  0.69012863  0.44933394  0.05863617    -0.86900
O263        O  0.69864687  0.57247179  0.92861350    -0.86600
O264        O  0.80022641  0.57216575  0.93418206    -0.86200
O265        O  0.79136365  0.44638119  0.05982688    -0.86700
O266        O  0.73386524  0.40993589  0.97038605    -0.87000
O267        O  0.75050792  0.47865796  0.89692182    -0.88300
Zr268      Zr  0.74160214  0.46553094  0.04007846     2.83100
Zr269      Zr  0.74786855  0.55203888  0.94778792     2.83500
Zr270      Zr  0.68040892  0.50921206  0.99126901     2.84100
Zr271      Zr  0.80810451  0.50752006  0.99591951     2.83400
Zr272      Zr  0.74430817  0.46301031  0.95117253     2.84200
O273        O  0.77813364  0.50688612  0.95004314    -1.08900
O274        O  0.71108709  0.46457569  0.99451270    -1.08400
C275        C  0.73067444  0.39688567  0.99757536     1.06300
C276        C  0.75210235  0.50485295  0.88189650     1.08900
C277        C  0.66160641  0.45513043  0.05069951     1.06500
C278        C  0.82080951  0.45159506  0.05414194     1.06800
C279        C  0.82867696  0.56716945  0.94326421     1.06400
C280        C  0.66944281  0.56920204  0.93634315     1.06000
C281        C  0.66539309  0.45467751  0.93182690     1.06400
C282        C  0.82379685  0.44792119  0.94245685     1.05900
H283        H  0.70206547  0.50827760  0.92863289     0.32600
O284        O  0.71412008  0.50813673  0.94775642    -1.30000
H285        H  0.78695508  0.44399843  0.99764887     0.32600
O286        O  0.77495208  0.46293342  0.99661811    -1.31300
O287        O  0.25163130  0.60802383  0.97898115    -0.86800
O288        O  0.23679893  0.47887012  0.10005194    -0.87000
O289        O  0.19568273  0.57437274  0.06450344    -0.88600
O290        O  0.29691800  0.56551689  0.06781826    -0.87400
O291        O  0.33427213  0.53908503  0.04011637    -0.87000
O292        O  0.15517699  0.54986627  0.03829431    -0.88300
O293        O  0.24073976  0.53246385  0.10143408    -0.86800
O294        O  0.25211182  0.60634009  0.03267472    -0.86400
Zr295      Zr  0.24499523  0.55150061  0.04788702     2.84300
O296        O  0.27431162  0.50557868  0.04646018    -1.08400
O297        O  0.21245965  0.55499217  0.00388746    -1.09100
C298        C  0.25464516  0.62088491  0.00619292     1.06300
C299        C  0.23701805  0.50540053  0.11457964     1.06300
C300        C  0.16627426  0.57041757  0.05778342     1.09200
C301        C  0.32568490  0.55854193  0.06164492     1.07000
H302        H  0.19652990  0.50830585  0.06556932     0.32600
O303        O  0.20999482  0.50840454  0.04737597    -1.29300
H304        H  0.29150389  0.56894850  0.00378439     0.32300
O305        O  0.27701607  0.55134037  0.00335724    -1.31000
O306        O  0.24193701  0.40879263  0.02542794    -0.86800
O307        O  0.23995624  0.53942373  0.90481129    -0.88300
O308        O  0.15024215  0.47193599  0.03540410    -0.86900
O309        O  0.32841481  0.46485496  0.03515352    -0.86900
O310        O  0.33317220  0.54081961  0.96423477    -0.86600
O311        O  0.15482748  0.54589794  0.96444350    -0.86400
O312        O  0.18752689  0.44860583  0.93980244    -0.86800
O313        O  0.28831141  0.44826633  0.93351403    -0.86300
O314        O  0.15067211  0.47576474  0.96758634    -0.87300
O315        O  0.32873524  0.46947790  0.96264436    -0.86500
O316        O  0.18758026  0.44221758  0.05912995    -0.86900
O317        O  0.19448489  0.57311033  0.93980656    -0.86600
O318        O  0.29599030  0.56963858  0.93896834    -0.86200
O319        O  0.28833107  0.44179223  0.06301133    -0.86700
O320        O  0.24190847  0.41018330  0.97173693    -0.87000
O321        O  0.23652254  0.48620064  0.90195652    -0.88300
Zr322      Zr  0.23931822  0.46263319  0.04503215     2.83100
Zr323      Zr  0.24456722  0.55454890  0.95941334     2.83500
Zr324      Zr  0.17826154  0.51113773  0.00302344     2.84100
Zr325      Zr  0.30638646  0.50560093  0.00152114     2.83400
Zr326      Zr  0.23949644  0.46564163  0.95587394     2.84200
O327        O  0.27405154  0.50889080  0.95713664    -1.08900
O328        O  0.20756104  0.46519346  0.00066437    -1.08400
C329        C  0.24350620  0.39549638  0.99829535     1.06300
C330        C  0.23659934  0.51384309  0.88927272     1.08900
C331        C  0.15880198  0.44861435  0.05271150     1.06500
C332        C  0.31744921  0.44476620  0.05540152     1.06800
C333        C  0.32471977  0.56189700  0.94424911     1.06400
C334        C  0.16515167  0.56559509  0.94370770     1.06000
C335        C  0.15909415  0.45552770  0.94703902     1.06400
C336        C  0.31760734  0.45203906  0.94029701     1.05900
H337        H  0.19709399  0.51190616  0.94018732     0.32600
O338        O  0.21030756  0.51119099  0.95848939    -1.30000
H339        H  0.28353363  0.44435930  0.99944780     0.32600
O340        O  0.27125693  0.46307671  0.00031187    -1.31300
C341        C  0.00404445  0.70048732  0.84094113    -0.02800
C342        C  0.99279813  0.31707054  0.84753156    -0.02800
C343        C  0.49665166  0.66399546  0.80892422    -0.02800
C344        C  0.50078374  0.66894553  0.18577670    -0.02800
C345        C  0.98526943  0.31349138  0.15453484    -0.02800
C346        C  0.99240165  0.69688068  0.15449768    -0.02800
C347        C  0.48626188  0.35370464  0.80795986    -0.02800
C348        C  0.48802680  0.36038886  0.18782536    -0.02800
O349        O  0.55317677  0.44478965  0.54280510    -0.86800
O350        O  0.46027368  0.50011792  0.40145079    -0.87000
O351        O  0.48254345  0.41560294  0.46873095    -0.88600
O352        O  0.56181155  0.47280679  0.43580416    -0.87400
O353        O  0.57692930  0.52424943  0.44186849    -0.87000
O354        O  0.44230496  0.42345352  0.50348355    -0.88300
O355        O  0.49552263  0.46127279  0.41137141    -0.86800
O356        O  0.54620734  0.42881775  0.49196624    -0.86400
Zr357      Zr  0.51283648  0.46488132  0.46516135     2.84300
O358        O  0.50929998  0.51597534  0.44637338    -1.08400
O359        O  0.49627295  0.46216080  0.51725934    -1.09100
C360        C  0.55626115  0.42513855  0.52007872     1.06300
C361        C  0.47672737  0.47632534  0.39334359     1.06300
C362        C  0.45827540  0.40630501  0.48478083     1.09200
C363        C  0.58037127  0.49657221  0.43072064     1.07000
H364        H  0.44725668  0.46595230  0.45495518     0.32600
O365        O  0.46024378  0.47965412  0.46759990    -1.29300
H366        H  0.56580598  0.49095335  0.49475435     0.32300
O367        O  0.54437834  0.49792130  0.49586350    -1.31000
O368        O  0.42746078  0.57967515  0.45473597    -0.86800
O369        O  0.52501916  0.52944140  0.59408972    -0.88300
O370        O  0.39503815  0.47898658  0.49088210    -0.86900
O371        O  0.53285381  0.57620831  0.42596459    -0.86900
O372        O  0.58967634  0.54774894  0.50669082    -0.86600
O373        O  0.45122386  0.45120112  0.57096682    -0.86400
O374        O  0.41955349  0.55458057  0.55734846    -0.86800
O375        O  0.50171970  0.61028676  0.52989846    -0.86300
O376        O  0.40486126  0.50311922  0.55057102    -0.87300
O377        O  0.54289099  0.60265497  0.49599388    -0.86500
O378        O  0.40323476  0.51270085  0.44941341    -0.86900
O379        O  0.50203398  0.46144356  0.58650931    -0.86600
O380        O  0.58134770  0.51488493  0.54884441    -0.86200
O381        O  0.48210395  0.56521037  0.41129302    -0.86700
O382        O  0.43509006  0.59671060  0.50507558    -0.87000
O383        O  0.48859882  0.56737262  0.58433926    -0.88300
Zr384      Zr  0.45707632  0.53131133  0.44929210     2.83100
Zr385      Zr  0.52724653  0.49557089  0.54798511     2.83500
Zr386      Zr  0.44414591  0.47739496  0.52015181     2.84100
Zr387      Zr  0.54055516  0.54935292  0.47680750     2.83400
Zr388      Zr  0.47066486  0.56191248  0.53132819     2.84200
O389        O  0.52325773  0.54680035  0.52886403    -1.08900
O390        O  0.44003914  0.52836608  0.50100750    -1.08400
C391        C  0.42302889  0.59886401  0.47754973     1.06300
C392        C  0.50864503  0.55344220  0.60177619     1.08900
C393        C  0.38599432  0.49444231  0.46657950     1.06500
C394        C  0.50944728  0.57778306  0.40660213     1.06800
C395        C  0.59868241  0.53313847  0.53160942     1.06400
C396        C  0.47453907  0.44868523  0.59023202     1.06000
C397        C  0.40012747  0.53109352  0.56016165     1.06400
C398        C  0.52667607  0.61931457  0.51496739     1.05900
H399        H  0.46716273  0.51050430  0.57239208     0.32600
O400        O  0.47469303  0.51106065  0.55107398    -1.30000
H401        H  0.48687424  0.58631637  0.47159928     0.32600
O402        O  0.48826963  0.56517225  0.47943356    -1.31300
O403        O  0.06633246  0.94522163  0.04219409    -0.86800
O404        O  0.00831726  0.03859611  0.90305927    -0.87000
O405        O  0.03933611  0.93922167  0.93499784    -0.88600
O406        O  0.09399549  0.02086442  0.97198360    -0.87400
O407        O  0.08036667  0.06249920  0.00245091    -0.87000
O408        O  0.98957095  0.92030961  0.94497418    -0.88300
O409        O  0.05076853  0.00837823  0.91451158    -0.86800
O410        O  0.08265766  0.95320894  0.99146815    -0.86400
Zr411      Zr  0.04620064  0.98792529  0.96662749     2.84300
O412        O  0.02705027  0.03923158  0.96856300    -1.08400
O413        O  0.01466636  0.95466559  0.99720939    -1.09100
C414        C  0.08542584  0.94118759  0.01895134     1.06300
C415        C  0.03444502  0.02524281  0.89581918     1.06300
C416        C  0.01629284  0.91911919  0.93110759     1.09200
C417        C  0.10028976  0.04657331  0.98683761     1.07000
H418        H  0.99467196  0.98168138  0.92662608     0.32600
O419        O  0.99468723  0.98889356  0.94796790    -1.29300
H420        H  0.06848707  0.00583106  0.02659598     0.32300
O421        O  0.04731331  0.00578577  0.01847194    -1.31000
O422        O  0.92405209  0.06566931  0.95759309    -0.86800
O423        O  0.98453481  0.97297215  0.09679607    -0.88300
O424        O  0.93659687  0.96270156  0.92715620    -0.86900
O425        O  0.02218828  0.10531447  0.99004783    -0.86900
O426        O  0.05207346  0.05196202  0.07213775    -0.86600
O427        O  0.96762723  0.90698811  0.00864594    -0.86400
O428        O  0.89771795  0.98882969  0.02922334    -0.86800
O429        O  0.95031833  0.07321675  0.06223443    -0.86300
O430        O  0.90940990  0.94962544  0.99489436    -0.87300
O431        O  0.00036131  0.09269054  0.05380204    -0.86500
O432        O  0.94435132  0.01359652  0.91098559    -0.86900
O433        O  0.99866494  0.91782948  0.05127744    -0.86600
O434        O  0.04685889  0.00050884  0.08720614    -0.86200
O435        O  0.99172759  0.09374630  0.94730593    -0.86700
O436        O  0.90776707  0.05567831  0.00794968    -0.87000
O437        O  0.94299205  0.00547238  0.08765819    -0.88300
Zr438      Zr  0.97509921  0.03961719  0.95037217     2.83100
Zr439      Zr  0.01593460  0.97206584  0.04889313     2.83500
Zr440      Zr  0.96300611  0.95586562  0.97852317     2.84100
Zr441      Zr  0.02712432  0.05652944  0.02045637     2.83400
Zr442      Zr  0.94486939  0.02294386  0.03362807     2.84200
O443        O  0.99652683  0.02278002  0.05150373    -1.08900
O444        O  0.94336156  0.00641066  0.98131241    -1.08400
C445        C  0.90461362  0.06837633  0.98084265     1.06300
C446        C  0.95975320  0.98777621  0.10527917     1.08900
C447        C  0.93418046  0.98543797  0.90705620     1.06500
C448        C  0.00746793  0.11288559  0.96466170     1.06800
C449        C  0.05627973  0.02899783  0.09146732     1.06400
C450        C  0.98249184  0.89903554  0.03381825     1.06000
C451        C  0.89064068  0.96396182  0.01327062     1.06400
C452        C  0.97257269  0.09420304  0.06547461     1.05900
H453        H  0.95102980  0.95810193  0.04357029     0.32600
O454        O  0.96390670  0.97201499  0.03086932    -1.30000
H455        H  0.96735804  0.07732722  0.00300956     0.32600
O456        O  0.97556413  0.05647441  0.00218772    -1.31300
C457        C  0.44868246  0.44528381  0.31457625    -0.11700
C458        C  0.47772209  0.43916279  0.30037413     0.14900
C459        C  0.50579390  0.44784682  0.31577244     0.01800
C460        C  0.50438761  0.46069383  0.34563514    -0.16000
C461        C  0.47552086  0.46558135  0.36061840    -0.10800
C462        C  0.44726396  0.45824425  0.34466490     0.08500
C463        C  0.47858648  0.41941347  0.27211451     0.09500
S464        S  0.54421091  0.44092430  0.29955961    -0.25200
H465        H  0.52618621  0.46644282  0.35760604     0.19800
S466        S  0.40901014  0.46247491  0.36221412    -0.30900
H467        H  0.42709585  0.43824584  0.30292163     0.10100
C468        C  0.48094096  0.38689045  0.27489715     0.03300
C469        C  0.48526888  0.36881986  0.24813249    -0.13200
C470        C  0.48570329  0.38193999  0.21756865    -0.08800
C471        C  0.48348267  0.41543969  0.21538903     0.06700
C472        C  0.47976830  0.43334988  0.24256468    -0.13900
S473        S  0.47878371  0.36825710  0.31294683    -0.30900
H474        H  0.48878470  0.34426610  0.25184256     0.11000
S475        S  0.48425253  0.43650677  0.17849010    -0.28000
H476        H  0.47852375  0.45857702  0.24098505     0.08200
H477        H  0.41832714  0.45474570  0.39278767     0.26700
H478        H  0.47854867  0.33713471  0.30243902     0.21500
H479        H  0.47251515  0.46495100  0.18949697     0.26800
H480        H  0.53595874  0.44621522  0.26821254     0.15600
C481        C  0.48962695  0.39590721  0.65983122    -0.11700
C482        C  0.46561356  0.40461231  0.68037911     0.14900
C483        C  0.44235951  0.42528548  0.66969651     0.01800
C484        C  0.44477386  0.43831723  0.63955070    -0.16000
C485        C  0.46969974  0.43070256  0.61957358    -0.10800
C486        C  0.49172717  0.40844744  0.62950635     0.08500
C487        C  0.46651452  0.39248026  0.71304103     0.09500
S488        S  0.40932556  0.43599637  0.69352835    -0.25200
H489        H  0.42767397  0.45525728  0.63201886     0.19800
S490        S  0.52235009  0.39563239  0.60342749    -0.30900
H491        H  0.50710673  0.37963743  0.66789513     0.10100
C492        C  0.46220121  0.36061280  0.71954591     0.03300
C493        C  0.46697783  0.34953779  0.74999347    -0.13200
C494        C  0.47780175  0.36904410  0.77497068    -0.08800
C495        C  0.47670925  0.40198889  0.76869425     0.06700
C496        C  0.47262204  0.41295479  0.73779514    -0.13900
S497        S  0.44976325  0.33394595  0.68905410    -0.30900
H498        H  0.46157545  0.32512824  0.75380049     0.11000
S499        S  0.47927854  0.43106643  0.79901844    -0.28000
H500        H  0.47423581  0.43775171  0.73269029     0.08200
H501        H  0.53553343  0.37353720  0.62380814     0.26700
H502        H  0.44831746  0.30661909  0.70746374     0.21500
H503        H  0.47581803  0.45783868  0.78018428     0.26800
H504        H  0.40682672  0.40726642  0.70960738     0.15600
C505        C  0.97467892  0.78191356  0.12156752    -0.11700
C506        C  0.97792677  0.77681566  0.08961968     0.14900
C507        C  0.98457270  0.74671542  0.07896601     0.01800
C508        C  0.98802305  0.72246282  0.10070957    -0.16000
C509        C  0.98693717  0.72711847  0.13368795    -0.10800
C510        C  0.97891003  0.75821041  0.14386049     0.08500
C511        C  0.97890319  0.80485863  0.06932854     0.09500
S512        S  0.99045978  0.73788972  0.03815593    -0.25200
H513        H  0.99291658  0.69945378  0.09163825     0.19800
S514        S  0.96964924  0.76999780  0.18351369    -0.30900
H515        H  0.96890747  0.80529061  0.12904856     0.10100
C516        C  0.95151432  0.81845230  0.05715755     0.03300
C517        C  0.95336906  0.84862989  0.04380164    -0.13200
C518        C  0.98194269  0.86571255  0.04355289    -0.08800
C519        C  0.00941796  0.85121244  0.05497795     0.06700
C520        C  0.00755041  0.82110944  0.06740156    -0.13900
S521        S  0.91419711  0.79788028  0.05997310    -0.30900
H522        H  0.93231776  0.85955108  0.03509685     0.11000
S523        S  0.04769714  0.86984137  0.05555018    -0.28000
H524        H  0.02848481  0.81075543  0.07716351     0.08200
H525        H  0.97499982  0.80238751  0.17997968     0.26700
H526        H  0.89576302  0.82222791  0.04814660     0.21500
H527        H  0.04251096  0.88746941  0.02844370     0.26800
H528        H  0.97396364  0.76326730  0.02580348     0.15600
C529        C  0.94879370  0.23223860  0.12841835    -0.11700
C530        C  0.97572215  0.21452374  0.12461083     0.14900
C531        C  0.00519799  0.22827676  0.13144197     0.01800
C532        C  0.00687044  0.25926807  0.14168312    -0.16000
C533        C  0.98032811  0.27879771  0.14299008    -0.10800
C534        C  0.95022929  0.26355665  0.13811162     0.08500
C535        C  0.97192346  0.18261175  0.11145105     0.09500
S536        S  0.04189558  0.20828567  0.12646397    -0.25200
H537        H  0.02987810  0.26857165  0.14698856     0.19800
S538        S  0.91250818  0.28186962  0.14355356    -0.30900
H539        H  0.92625026  0.22125702  0.12330937     0.10100
C540        C  0.97892141  0.15530076  0.12850529     0.03300
C541        C  0.97692385  0.12611341  0.11357178    -0.13200
C542        C  0.96642234  0.12340321  0.08254378    -0.08800
C543        C  0.95768198  0.15077290  0.06628683     0.06700
C544        C  0.96067887  0.17987175  0.08079283    -0.13900
S545        S  0.99068795  0.15752192  0.16901580    -0.30900
H546        H  0.98505420  0.10562922  0.12561754     0.11000
S547        S  0.94479425  0.15090014  0.02619479    -0.28000
H548        H  0.95487936  0.20079070  0.06773668     0.08200
H549        H  0.89358743  0.25456123  0.14469186     0.26700
H550        H  0.99017797  0.12509533  0.17478915     0.21500
H551        H  0.93651983  0.11915109  0.02448504     0.26800
H552        H  0.03191548  0.18857078  0.10209935     0.15600
C553        C  0.52953880  0.63527946  0.33977542    -0.11700
C554        C  0.51095360  0.62236041  0.31571493     0.14900
C555        C  0.49428710  0.59414052  0.32123014     0.01800
C556        C  0.49535347  0.58024169  0.35073162    -0.16000
C557        C  0.51311546  0.59327327  0.37541926    -0.10800
C558        C  0.53108810  0.62086305  0.36943788     0.08500
C559        C  0.51036668  0.63737907  0.28441233     0.09500
S560        S  0.47057068  0.57480508  0.29181978    -0.25200
H561        H  0.48196451  0.55870935  0.35436952     0.19800
S562        S  0.55524201  0.63934083  0.39871630    -0.30900
H563        H  0.54293373  0.65665262  0.33537639     0.10100
C564        C  0.48478483  0.65481177  0.27406900     0.03300
C565        C  0.48334780  0.66438891  0.24266176    -0.13200
C566        C  0.50627602  0.65610475  0.22010257    -0.08800
C567        C  0.53349213  0.63998915  0.23206189     0.06700
C568        C  0.53445005  0.63077926  0.26360241    -0.13900
S569        S  0.45359865  0.66438270  0.30086292    -0.30900
H570        H  0.46339969  0.67787341  0.23525488     0.11000
S571        S  0.56880438  0.63059694  0.21041777    -0.28000
H572        H  0.55394165  0.61718897  0.27214467     0.08200
H573        H  0.57373220  0.61276869  0.40324050     0.26700
H574        H  0.43405713  0.67897615  0.27887065     0.21500
H575        H  0.58976189  0.63072642  0.23587838     0.26800
H576        H  0.48922219  0.58326458  0.26589652     0.15600
C577        C  0.49666386  0.57278950  0.68662547    -0.11700
C578        C  0.50928530  0.60327751  0.68719955     0.14900
C579        C  0.52468132  0.61564181  0.66053253     0.01800
C580        C  0.52655170  0.59739361  0.63366142    -0.16000
C581        C  0.51297634  0.56725942  0.63267824    -0.10800
C582        C  0.49805703  0.55466770  0.65959172     0.08500
C583        C  0.50677482  0.62108759  0.71638599     0.09500
S584        S  0.54121325  0.65479991  0.65884054    -0.25200
H585        H  0.53724960  0.60739033  0.61275455     0.19800
S586        S  0.47798655  0.51707506  0.66064498    -0.30900
H587        H  0.48501066  0.56333241  0.70726457     0.10100
C588        C  0.47824847  0.63376073  0.72606760     0.03300
C589        C  0.47664518  0.64854262  0.75511412    -0.13200
C590        C  0.50261586  0.64987735  0.77579203    -0.08800
C591        C  0.53252464  0.64066873  0.76330299     0.06700
C592        C  0.53362099  0.62541806  0.73449006    -0.13900
S593        S  0.44365937  0.63046933  0.70175164    -0.30900
H594        H  0.45424491  0.65700141  0.76272732     0.11000
S595        S  0.57062851  0.65091524  0.77962936    -0.28000
H596        H  0.55585020  0.61742943  0.72540486     0.08200
H597        H  0.49237011  0.50376094  0.63459908     0.26700
H598        H  0.42461397  0.65019681  0.71957661     0.21500
H599        H  0.58684546  0.62525065  0.76753223     0.26800
H600        H  0.52013021  0.66819605  0.68002885     0.15600
C601        C  0.00696621  0.26192356  0.91990071    -0.11700
C602        C  0.01424326  0.23378775  0.90557483     0.14900
C603        C  0.01640038  0.23261449  0.87285949     0.01800
C604        C  0.00998842  0.25917906  0.85507007    -0.16000
C605        C  0.00016673  0.28766493  0.86860491    -0.10800
C606        C  0.00014300  0.28878106  0.90229548     0.08500
C607        C  0.01280676  0.20482648  0.92447049     0.09500
S608        S  0.02586442  0.19730594  0.85212705    -0.25200
H609        H  0.01393993  0.25704886  0.83031084     0.19800
S610        S  0.98888314  0.32277916  0.92440248    -0.30900
H611        H  0.00474338  0.26222088  0.94513964     0.10100
C612        C  0.03872699  0.19320200  0.94109510     0.03300
C613        C  0.03611604  0.16370774  0.95579978    -0.13200
C614        C  0.00800171  0.14593331  0.95410498    -0.08800
C615        C  0.98143594  0.15918323  0.93934386     0.06700
C616        C  0.98435746  0.18810728  0.92452049    -0.13900
S617        S  0.07539781  0.21505657  0.94194689    -0.30900
H618        H  0.05638127  0.15383302  0.96722758     0.11000
S619        S  0.94290530  0.14079449  0.93800654    -0.28000
H620        H  0.96425064  0.19758505  0.91237827     0.08200
H621        H  0.00090653  0.31340855  0.95355922     0.26700
H622        H  0.09162519  0.19410112  0.96129981     0.21500
H623        H  0.94580000  0.12417857  0.96613419     0.26800
H624        H  0.04346837  0.18358062  0.87617016     0.15600
C625        C  0.03244519  0.78832335  0.84679494    -0.11700
C626        C  0.01661360  0.79819872  0.87342705     0.14900
C627        C  0.99528792  0.77739677  0.88827056     0.01800
C628        C  0.99021632  0.74744541  0.87624025    -0.16000
C629        C  0.00838227  0.73546085  0.85139087    -0.10800
C630        C  0.02926959  0.75758999  0.83580917     0.08500
C631        C  0.01973035  0.83131477  0.88330452     0.09500
S632        S  0.97385869  0.78757740  0.92311836    -0.25200
H633        H  0.97176770  0.73372755  0.88714351     0.19800
S634        S  0.05425268  0.74942796  0.80273688    -0.30900
H635        H  0.04802778  0.80471162  0.83471488     0.10100
C636        C  0.04742616  0.84410141  0.89668593     0.03300
C637        C  0.04711034  0.87454790  0.90935542    -0.13200
C638        C  0.01934617  0.89189202  0.90967105    -0.08800
C639        C  0.99257422  0.87955247  0.89361223     0.06700
C640        C  0.99324136  0.84980799  0.88068145    -0.13900
S641        S  0.08218124  0.82073149  0.89994998    -0.30900
H642        H  0.06781286  0.88395393  0.92079453     0.11000
S643        S  0.95597370  0.89965648  0.88936425    -0.28000
H644        H  0.97227901  0.84035398  0.86950470     0.08200
H645        H  0.06585350  0.72114657  0.81393389     0.26700
H646        H  0.10152477  0.84398115  0.91348917     0.21500
H647        H  0.97023962  0.92925884  0.89020953     0.26800
H648        H  0.99779281  0.80677637  0.93578994     0.15600
C649        C  0.07458171  0.35429499  0.86823158    -0.11700
C650        C  0.06587044  0.38104069  0.88440894     0.14900
C651        C  0.03424020  0.38924560  0.88571646     0.01800
C652        C  0.01160338  0.36895402  0.87371296    -0.16000
C653        C  0.01917853  0.34098182  0.85774389    -0.10800
C654        C  0.05197458  0.33439205  0.85452930     0.08500
C655        C  0.09003420  0.39948048  0.90087787     0.09500
S656        S  0.02089122  0.42474608  0.90382000    -0.25200
H657        H  0.98794943  0.37490117  0.87959232     0.19800
S658        S  0.06617701  0.30151633  0.83246216    -0.30900
H659        H  0.09930833  0.34892598  0.86672169     0.10100
C660        C  0.09061510  0.40094448  0.93383648     0.03300
C661        C  0.11259219  0.42070602  0.94841301    -0.13200
C662        C  0.13428602  0.43826588  0.93061369    -0.08800
C663        C  0.13373374  0.43651933  0.89765571     0.06700
C664        C  0.11174780  0.41694533  0.88313482    -0.13900
S665        S  0.06427896  0.37677182  0.95727446    -0.30900
H666        H  0.11368942  0.42168680  0.97370878     0.11000
S667        S  0.15977786  0.45927570  0.87284202    -0.28000
H668        H  0.11100261  0.41588262  0.85781233     0.08200
H669        H  0.09808645  0.30421166  0.84076352     0.26700
H670        H  0.07425572  0.38785004  0.98663353     0.21500
H671        H  0.16254657  0.48508645  0.89297614     0.26800
H672        H  0.04793908  0.44289620  0.89696061     0.15600
C673        C  0.11599627  0.37807307  0.08980505    -0.11700
C674        C  0.08561852  0.38951610  0.09365844     0.14900
C675        C  0.07904132  0.42003914  0.08299692     0.01800
C676        C  0.10322058  0.43878459  0.07010069    -0.16000
C677        C  0.13387568  0.42749562  0.06634000    -0.10800
C678        C  0.13986191  0.39609317  0.07543126     0.08500
C679        C  0.06165544  0.36921707  0.10957880     0.09500
S680        S  0.04019118  0.43623320  0.08463478    -0.25200
H681        H  0.09788941  0.46238748  0.06276580     0.19800
S682        S  0.17696256  0.37753265  0.06749732    -0.30900
H683        H  0.12085158  0.35461495  0.09788880     0.10100
C684        C  0.05209196  0.34021657  0.09721446     0.03300
C685        C  0.02979063  0.32167256  0.11327379    -0.13200
C686        C  0.01485885  0.33167680  0.14106694    -0.08800
C687        C  0.02522528  0.36136802  0.15333904     0.06700
C688        C  0.04862221  0.37906763  0.13775459    -0.13900
S689        S  0.06638626  0.32777173  0.05948038    -0.30900
H690        H  0.02290871  0.30001447  0.10246186     0.11000
S691        S  0.01006207  0.37765996  0.18922034    -0.28000
H692        H  0.05647221  0.40132066  0.14718223     0.08200
H693        H  0.16823845  0.34711150  0.07720678     0.26700
H694        H  0.04906472  0.29950683  0.05773386     0.21500
H695        H  0.03351167  0.40080352  0.19373845     0.26800
H696        H  0.02364563  0.40763871  0.08154958     0.15600
C697        C  0.06172553  0.63767600  0.14780042    -0.11700
C698        C  0.07987922  0.65102914  0.12380919     0.14900
C699        C  0.07386260  0.68203016  0.11468098     0.01800
C700        C  0.04770322  0.69737520  0.12686160    -0.16000
C701        C  0.02581204  0.68223270  0.14727203    -0.10800
C702        C  0.03581575  0.65314168  0.16054922     0.08500
C703        C  0.10293441  0.63114890  0.10710687     0.09500
S704        S  0.09845838  0.70317322  0.08710310    -0.25200
H705        H  0.04462073  0.72133589  0.11960554     0.19800
S706        S  0.01453250  0.63309307  0.19139624    -0.30900
H707        H  0.06707867  0.61422276  0.15552945     0.10100
C708        C  0.12913639  0.61820546  0.12233588     0.03300
C709        C  0.14918590  0.59840964  0.10572325    -0.13200
C710        C  0.14390107  0.59130002  0.07401126    -0.08800
C711        C  0.11814617  0.60513941  0.05862045     0.06700
C712        C  0.09774697  0.62426785  0.07541183    -0.13900
S713        S  0.13768848  0.62760471  0.16263730    -0.30900
H714        H  0.16908914  0.58827141  0.11754932     0.11000
S715        S  0.11098417  0.60092487  0.01727893    -0.28000
H716        H  0.07780410  0.63430571  0.06350823     0.08200
H717        H  0.03552227  0.60853652  0.19637133     0.26700
H718        H  0.16524961  0.61008638  0.16523910     0.21500
H719        H  0.14291404  0.60210713  0.00863397     0.26800
H720        H  0.12608200  0.68673623  0.09347082     0.15600
C721        C  0.08923211  0.59152207  0.90359401    -0.11700
C722        C  0.10120806  0.61302849  0.88159216     0.14900
C723        C  0.13403909  0.61673779  0.87831887     0.01800
C724        C  0.15394710  0.60101702  0.89875009    -0.16000
C725        C  0.14216142  0.58036849  0.92198245    -0.10800
C726        C  0.10914626  0.57445369  0.92300605     0.08500
C727        C  0.07927195  0.63535315  0.86709914     0.09500
S728        S  0.15197423  0.64194321  0.84908581    -0.25200
H729        H  0.17899999  0.60528251  0.89635478     0.19800
S730        S  0.09034353  0.54581150  0.94817146    -0.30900
H731        H  0.06400478  0.58859619  0.90627632     0.10100
C732        C  0.05338619  0.62587083  0.84901961     0.03300
C733        C  0.03112475  0.64798978  0.84018088    -0.13200
C734        C  0.03357047  0.68007505  0.84869858    -0.08800
C735        C  0.06092170  0.68915650  0.86676192     0.06700
C736        C  0.08287783  0.66670226  0.87512132    -0.13900
S737        S  0.04862135  0.58558132  0.83715119    -0.30900
H738        H  0.01094313  0.64005732  0.82682288     0.11000
S739        S  0.06853429  0.72676903  0.88479240    -0.28000
H740        H  0.10235909  0.67329952  0.89018328     0.08200
H741        H  0.10846184  0.52113489  0.93667148     0.26700
H742        H  0.01856338  0.58840044  0.82385964     0.21500
H743        H  0.10156089  0.72573674  0.88324492     0.26800
H744        H  0.12668907  0.64064849  0.82793232     0.15600
C745        C  0.43497354  0.38917350  0.87639908    -0.11700
C746        C  0.40476759  0.38017488  0.86757362     0.14900
C747        C  0.40087927  0.36292852  0.83979675     0.01800
C748        C  0.42741615  0.35493682  0.82199457    -0.16000
C749        C  0.45864820  0.36355140  0.83069464    -0.10800
C750        C  0.46133601  0.38330561  0.85800516     0.08500
C751        C  0.37864956  0.39442664  0.88560797     0.09500
S752        S  0.36278544  0.35022432  0.82588738    -0.25200
H753        H  0.42353286  0.34164511  0.80081806     0.19800
S754        S  0.49519074  0.40681621  0.86932994    -0.30900
H755        H  0.43760000  0.40344225  0.89714583     0.10100
C756        C  0.37650940  0.39084488  0.91847900     0.03300
C757        C  0.35742587  0.41087039  0.93584882    -0.13200
C758        C  0.33971128  0.43398721  0.92109855    -0.08800
C759        C  0.34065920  0.43660194  0.88806920     0.06700
C760        C  0.36020419  0.41701759  0.87081337    -0.13900
S761        S  0.39795433  0.36052910  0.93833397    -0.30900
H762        H  0.35571639  0.40811708  0.96099681     0.11000
S763        S  0.31840669  0.46510526  0.86651643    -0.28000
H764        H  0.36218214  0.42045258  0.84574756     0.08200
H765        H  0.47958353  0.43123157  0.88446728     0.26700
H766        H  0.38770623  0.36735102  0.96881006     0.21500
H767        H  0.31660715  0.48727162  0.89058451     0.26800
H768        H  0.34784677  0.35028377  0.85523998     0.15600
C769        C  0.40317667  0.59714837  0.91568085    -0.11700
C770        C  0.39428751  0.61023921  0.88696210     0.14900
C771        C  0.36263340  0.60778676  0.87744080     0.01800
C772        C  0.34078569  0.59190726  0.89650517    -0.16000
C773        C  0.34945875  0.57858212  0.92541570    -0.10800
C774        C  0.38121928  0.58187223  0.93517248     0.08500
C775        C  0.41902582  0.62428495  0.86655889     0.09500
S776        S  0.34870255  0.62407958  0.84108820    -0.25200
H777        H  0.31671642  0.58991054  0.88847329     0.19800
S778        S  0.39535653  0.56824390  0.97246037    -0.30900
H779        H  0.42751354  0.59900449  0.92303848     0.10100
C780        C  0.43360535  0.65306391  0.87344333     0.03300
C781        C  0.45798982  0.66446147  0.85419523    -0.13200
C782        C  0.46790757  0.64866636  0.82687166    -0.08800
C783        C  0.45389568  0.61813670  0.82152200     0.06700
C784        C  0.42915097  0.60737896  0.84078324    -0.13900
S785        S  0.42048160  0.67578997  0.90631244    -0.30900
H786        H  0.46885882  0.68664280  0.85998177     0.11000
S787        S  0.46752954  0.58984523  0.79329541    -0.28000
H788        H  0.41798958  0.58486255  0.83638398     0.08200
H789        H  0.37004069  0.58046183  0.98942817     0.26700
H790        H  0.43968562  0.70232414  0.90052978     0.21500
H791        H  0.45410261  0.56275590  0.80701244     0.26800
H792        H  0.37074676  0.64892796  0.83943767     0.15600
C793        C  0.39857569  0.57774475  0.11149593    -0.11700
C794        C  0.39338521  0.60919583  0.11922348     0.14900
C795        C  0.36623544  0.62368886  0.10739261     0.01800
C796        C  0.34526764  0.60671930  0.08834375    -0.16000
C797        C  0.35014371  0.57513286  0.08081100    -0.10800
C798        C  0.37717839  0.56051105  0.09293872     0.08500
C799        C  0.41754039  0.62669997  0.13804682     0.09500
S800        S  0.35677123  0.66373844  0.11584392    -0.25200
H801        H  0.32469940  0.61838139  0.07939408     0.19800
S802        S  0.38505869  0.51971041  0.08688527    -0.30900
H803        H  0.41938055  0.56640874  0.12030513     0.10100
C804        C  0.42359519  0.61954151  0.16959769     0.03300
C805        C  0.44828034  0.63508918  0.18553329    -0.13200
C806        C  0.46840634  0.65753138  0.17060735    -0.08800
C807        C  0.45985650  0.66632689  0.13925039     0.06700
C808        C  0.43513525  0.65062555  0.12367970    -0.13900
S809        S  0.40006480  0.59005204  0.18960756    -0.30900
H810        H  0.45310832  0.62720524  0.20892331     0.11000
S811        S  0.47973499  0.69765315  0.11795699    -0.28000
H812        H  0.42961538  0.65664747  0.09970680     0.08200
H813        H  0.35353600  0.50958045  0.08985742     0.26700
H814        H  0.41839682  0.58839797  0.21691467     0.21500
H815        H  0.46516337  0.69321893  0.08876693     0.26800
H816        H  0.37115136  0.66480445  0.14541866     0.15600
C817        C  0.35336174  0.38110031  0.10672785    -0.11700
C818        C  0.38520249  0.38907428  0.10409362     0.14900
C819        C  0.39493459  0.41308175  0.08337513     0.01800
C820        C  0.37238161  0.42956843  0.06674777    -0.16000
C821        C  0.34001820  0.42363750  0.07117961    -0.10800
C822        C  0.33047964  0.39819349  0.09100461     0.08500
C823        C  0.40675852  0.37634561  0.12750075     0.09500
S824        S  0.43557411  0.42493591  0.07808079    -0.25200
H825        H  0.38038156  0.44835242  0.05143795     0.19800
S826        S  0.28973813  0.38763932  0.09875809    -0.30900
H827        H  0.34639616  0.36281868  0.12308920     0.10100
C828        C  0.40795804  0.38954783  0.15736079     0.03300
C829        C  0.43195825  0.38123678  0.17761307    -0.13200
C830        C  0.45680010  0.36175061  0.16811970    -0.08800
C831        C  0.45178014  0.34424988  0.13989702     0.06700
C832        C  0.42730362  0.35257198  0.11961536    -0.13900
S833        S  0.38022201  0.41895098  0.16897232    -0.30900
H834        H  0.43124649  0.39104580  0.20069777     0.11000
S835        S  0.47854325  0.31468317  0.12656679    -0.28000
H836        H  0.42515660  0.34184551  0.09681244     0.08200
H837        H  0.29499197  0.35867050  0.11342115     0.26700
H838        H  0.39336387  0.42576173  0.19838991     0.21500
H839        H  0.46013713  0.30347381  0.10156343     0.26800
H840        H  0.44570921  0.41895730  0.10873217     0.15600
C841        C  0.61584254  0.39571047  0.09984478    -0.11700
C842        C  0.59241636  0.41455928  0.11228867     0.14900
C843        C  0.59145334  0.44651052  0.10379524     0.01800
C844        C  0.61332812  0.45865191  0.08233856    -0.16000
C845        C  0.63680706  0.43985816  0.06977604    -0.10800
C846        C  0.63795554  0.40792033  0.07863739     0.08500
C847        C  0.56706633  0.39954631  0.13091040     0.09500
S848        S  0.56278852  0.47296154  0.11927074    -0.25200
H849        H  0.61268094  0.48327106  0.07622711     0.19800
S850        S  0.66604879  0.38116543  0.06283012    -0.30900
H851        H  0.61623428  0.37107146  0.10590887     0.10100
C852        C  0.53742127  0.39448165  0.11777776     0.03300
C853        C  0.51296687  0.38300755  0.13646781    -0.13200
C854        C  0.51702426  0.37359331  0.16822107    -0.08800
C855        C  0.54788100  0.37932466  0.18116037     0.06700
C856        C  0.57209386  0.39187629  0.16226344    -0.13900
S857        S  0.53022241  0.40357384  0.07701425    -0.30900
H858        H  0.49035679  0.38363501  0.12567036     0.11000
S859        S  0.55884170  0.37462763  0.22181065    -0.28000
H860        H  0.59506516  0.39653400  0.17235603     0.08200
H861        H  0.66827184  0.39612212  0.03362858     0.26700
H862        H  0.50047888  0.38881885  0.07488630     0.21500
H863        H  0.54124162  0.34781100  0.22908068     0.26800
H864        H  0.55675987  0.45662771  0.14730974     0.15600
C865        C  0.54875284  0.61261845  0.13352362    -0.11700
C866        C  0.56892865  0.63301256  0.11729005     0.14900
C867        C  0.56574261  0.66549122  0.12133372     0.01800
C868        C  0.54457691  0.67656463  0.14369662    -0.16000
C869        C  0.52523270  0.65616509  0.16190975    -0.10800
C870        C  0.52669635  0.62336525  0.15494261     0.08500
C871        C  0.59340536  0.61873682  0.09738794     0.09500
S872        S  0.58707605  0.69413253  0.09804184    -0.25200
H873        H  0.54262837  0.70159918  0.14574023     0.19800
S874        S  0.50450783  0.59336493  0.17590280    -0.30900
H875        H  0.55127955  0.58766733  0.13034683     0.10100
C876        C  0.62566989  0.62213090  0.10416230     0.03300
C877        C  0.64756559  0.60550457  0.08658092    -0.13200
C878        C  0.63808112  0.58352253  0.06375741    -0.08800
C879        C  0.60528360  0.57879846  0.05850558     0.06700
C880        C  0.58372302  0.59734519  0.07445464    -0.13900
S881        S  0.63900732  0.64554386  0.13683918    -0.30900
H882        H  0.67229469  0.60903299  0.09156570     0.11000
S883        S  0.58960966  0.54792024  0.03380808    -0.28000
H884        H  0.55877507  0.59404101  0.07035237     0.08200
H885        H  0.50665333  0.56995298  0.15302181     0.26700
H886        H  0.67069513  0.63676110  0.13593605     0.21500
H887        H  0.55758524  0.55504582  0.03651331     0.26800
H888        H  0.59327991  0.67444345  0.07263883     0.15600
C889        C  0.59910296  0.62034134  0.91918703    -0.11700
C890        C  0.60305908  0.62586937  0.88712670     0.14900
C891        C  0.63073462  0.61595783  0.87221942     0.01800
C892        C  0.65212547  0.59784098  0.88884416    -0.16000
C893        C  0.64712175  0.59027049  0.92050830    -0.10800
C894        C  0.62126804  0.60349085  0.93616671     0.08500
C895        C  0.57571849  0.63646786  0.86890993     0.09500
S896        S  0.63913496  0.62442496  0.83168567    -0.25200
H897        H  0.67254439  0.58914523  0.87677619     0.19800
S898        S  0.61589784  0.60102551  0.97781075    -0.30900
H899        H  0.57822450  0.62856567  0.93088653     0.10100
C900        C  0.55765220  0.61464894  0.85215813     0.03300
C901        C  0.53233023  0.62482133  0.83451405    -0.13200
C902        C  0.52418404  0.65672232  0.83203871    -0.08800
C903        C  0.54019348  0.67802771  0.85269493     0.06700
C904        C  0.56638556  0.66767212  0.86987149    -0.13900
S905        S  0.56707539  0.57354770  0.85266106    -0.30900
H906        H  0.52010696  0.60768593  0.82070419     0.11000
S907        S  0.52693382  0.71712948  0.86085800    -0.28000
H908        H  0.57953186  0.68383726  0.88449394     0.08200
H909        H  0.64816246  0.60300084  0.98491977     0.26700
H910        H  0.53950135  0.56257642  0.83789513     0.21500
H911        H  0.54363848  0.72155149  0.88892196     0.26800
H912        H  0.62239968  0.65246371  0.83065851     0.15600
C913        C  0.55774030  0.36172943  0.86528023    -0.11700
C914        C  0.57237366  0.38937342  0.85463890     0.14900
C915        C  0.56311216  0.40145328  0.82525295     0.01800
C916        C  0.53836729  0.38703811  0.80867851    -0.16000
C917        C  0.51913529  0.36323602  0.82225594    -0.10800
C918        C  0.53072860  0.34923748  0.85057621     0.08500
C919        C  0.59633909  0.40542337  0.87504883     0.09500
S920        S  0.57975037  0.43692560  0.80867186    -0.25200
H921        H  0.53321439  0.39627762  0.78581903     0.19800
S922        S  0.50916615  0.31895241  0.87172945    -0.30900
H923        H  0.56595156  0.35152054  0.88692777     0.10100
C924        C  0.58941809  0.41471785  0.90610688     0.03300
C925        C  0.61217463  0.43102795  0.92368846    -0.13200
C926        C  0.64190095  0.43855414  0.91133587    -0.08800
C927        C  0.64887591  0.42940122  0.88026314     0.06700
C928        C  0.62634855  0.41241079  0.86291291    -0.13900
S929        S  0.55168941  0.40638876  0.92400002    -0.30900
H930        H  0.60695452  0.43754358  0.94754604     0.11000
S931        S  0.68550015  0.44086525  0.86149434    -0.28000
H932        H  0.63184604  0.40503546  0.83938735     0.08200
H933        H  0.53130094  0.31350350  0.89545229     0.26700
H934        H  0.55612240  0.42436078  0.95115180     0.21500
H935        H  0.67933882  0.42730107  0.83218372     0.26800
H936        H  0.58200312  0.45291067  0.83728476     0.15600
C937        C  0.85905282  0.38673353  0.10182837    -0.11700
C938        C  0.88899695  0.39964975  0.10725553     0.14900
C939        C  0.89652627  0.42971077  0.09531936     0.01800
C940        C  0.87394883  0.44610708  0.07823717    -0.16000
C941        C  0.84392509  0.43306743  0.07231382    -0.10800
C942        C  0.83679187  0.40263252  0.08406430     0.08500
C943        C  0.91319888  0.37881811  0.12023258     0.09500
S944        S  0.93497307  0.44771960  0.09956448    -0.25200
H945        H  0.88001364  0.46922731  0.06937174     0.19800
S946        S  0.80110802  0.38124953  0.07488511    -0.30900
H947        H  0.85365775  0.36316700  0.10993015     0.10100
C948        C  0.91987607  0.37694136  0.15227593     0.03300
C949        C  0.94268994  0.35604460  0.16291655    -0.13200
C950        C  0.95831040  0.33524572  0.14250965    -0.08800
C951        C  0.95051434  0.33756507  0.10981795     0.06700
C952        C  0.92849633  0.35924032  0.09954732    -0.13900
S953        S  0.89957712  0.40160282  0.17955789    -0.30900
H954        H  0.94846653  0.35683541  0.18737549     0.11000
S955        S  0.96529971  0.31166523  0.08008395    -0.28000
H956        H  0.92226538  0.36041840  0.07500795     0.08200
H957        H  0.80135101  0.39015096  0.04312289     0.26700
H958        H  0.91394559  0.39031845  0.20690073     0.21500
H959        H  0.95888718  0.33060411  0.05393114     0.26800
H960        H  0.94336877  0.43226424  0.12728599     0.15600
C961        C  0.91177523  0.33562198  0.88541084    -0.11700
C962        C  0.91002491  0.36725810  0.87698231     0.14900
C963        C  0.92918109  0.37864078  0.85242165     0.01800
C964        C  0.95164917  0.35915181  0.83927175    -0.16000
C965        C  0.95891732  0.33006982  0.85326097    -0.10800
C966        C  0.93507972  0.31636975  0.87277985     0.08500
C967        C  0.88770645  0.38765893  0.89364727     0.09500
S968        S  0.92857623  0.41873621  0.83913942    -0.25200
H969        H  0.96712653  0.36915820  0.82172032     0.19800
S970        S  0.93094592  0.27462642  0.87906190    -0.30900
H971        H  0.89472993  0.32605737  0.90185544     0.10100
C972        C  0.85947571  0.39713691  0.87970264     0.03300
C973        C  0.83966634  0.41733018  0.89593502    -0.13200
C974        C  0.84705391  0.42799624  0.92624615    -0.08800
C975        C  0.87520879  0.41782499  0.94040253     0.06700
C976        C  0.89531579  0.39817034  0.92381910    -0.13900
S977        S  0.84826844  0.38280241  0.84155622    -0.30900
H978        H  0.81807436  0.42468035  0.88498777     0.11000
S979        S  0.88599433  0.42744111  0.98002468    -0.28000
H980        H  0.91693127  0.39063211  0.93467827     0.08200
H981        H  0.91095751  0.27611946  0.90522336     0.26700
H982        H  0.81972851  0.39875506  0.83933867     0.21500
H983        H  0.85546365  0.42297779  0.99215139     0.26800
H984        H  0.92282179  0.43181551  0.86866299     0.15600
C985        C  0.95175783  0.65715329  0.90489429    -0.11700
C986        C  0.92736332  0.64438550  0.88704905     0.14900
C987        C  0.92729579  0.64965265  0.85462091     0.01800
C988        C  0.95137074  0.66770879  0.84078404    -0.16000
C989        C  0.97609562  0.68212947  0.85829665    -0.10800
C990        C  0.97628097  0.67499042  0.89126944     0.08500
C991        C  0.90272538  0.62496020  0.90282345     0.09500
S992        S  0.89728316  0.63345935  0.82930587    -0.25200
H993        H  0.95067286  0.66914420  0.81563027     0.19800
S994        S  0.00704077  0.68772220  0.91763467    -0.30900
H995        H  0.95168517  0.65279117  0.92988595     0.10100
C996        C  0.90876548  0.59428126  0.91308891     0.03300
C997        C  0.88437881  0.57604553  0.92644269    -0.13200
C998        C  0.85404208  0.58802143  0.93036899    -0.08800
C999        C  0.84877391  0.61964710  0.92177359     0.06700
C1000       C  0.87287315  0.63737131  0.90751033    -0.13900
S1001       S  0.94727330  0.57791983  0.90804707    -0.30900
H1002       H  0.88883405  0.55210239  0.93320563     0.11000
S1003       S  0.81257099  0.63953439  0.92962913    -0.28000
H1004       H  0.86849838  0.66127635  0.90043488     0.08200
H1005       H  0.00291781  0.66358700  0.93986285     0.26700
H1006       H  0.94180015  0.55096959  0.92640939     0.21500
H1007       H  0.80779062  0.62565830  0.95918831     0.26800
H1008       H  0.89210664  0.60565996  0.84638170     0.15600
C1009       C  0.87881559  0.62940167  0.07535857    -0.11700
C1010       C  0.89171993  0.61664287  0.10261643     0.14900
C1011       C  0.88122394  0.58701124  0.11353618     0.01800
C1012       C  0.85889859  0.57025935  0.09608100    -0.16000
C1013       C  0.84657327  0.58288724  0.06848373    -0.10800
C1014       C  0.85644136  0.61278632  0.05812111     0.08500
C1015       C  0.91687379  0.63474824  0.11806174     0.09500
S1016       S  0.89523563  0.56934532  0.14923835    -0.25200
H1017       H  0.85078345  0.54744996  0.10422843     0.19800
S1018       S  0.84153707  0.63077515  0.02302012    -0.30900
H1019       H  0.88681415  0.65220731  0.06708901     0.10100
C1020       C  0.94835225  0.62647357  0.11521953     0.03300
C1021       C  0.97174559  0.64637499  0.12708725    -0.13200
C1022       C  0.96493573  0.67420567  0.14373562    -0.08800
C1023       C  0.93232959  0.68243600  0.14530031     0.06700
C1024       C  0.90917979  0.66252140  0.13272529    -0.13900
S1025       S  0.95909708  0.59165012  0.09422084    -0.30900
H1026       H  0.99534551  0.64034611  0.12108468     0.11000
S1027       S  0.91850537  0.71748402  0.16376277    -0.28000
H1028       H  0.88463183  0.66867661  0.13385372     0.08200
H1029       H  0.83937651  0.60296806  0.00573596     0.26700
H1030       H  0.99057953  0.59103760  0.10425115     0.21500
H1031       H  0.88599551  0.71266623  0.15962947     0.26800
H1032       H  0.90593019  0.59694770  0.16374173     0.15600
C1033       C  0.05680963  0.05245549  0.81313170    -0.11700
C1034       C  0.07536485  0.02730887  0.80376211     0.14900
C1035       C  0.07979917  0.00201207  0.82431314     0.01800
C1036       C  0.06499159  0.00181282  0.85325220    -0.16000
C1037       C  0.04690813  0.02712919  0.86339878    -0.10800
C1038       C  0.04247498  0.05267547  0.84284095     0.08500
C1039       C  0.09036814  0.02761748  0.77265104     0.09500
S1040       S  0.10484222  0.96958299  0.81536961    -0.25200
H1041       H  0.06831212  0.98167273  0.86831309     0.19800
S1042       S  0.02030999  0.08628096  0.85445067    -0.30900
H1043       H  0.05393171  0.07203606  0.79728933     0.10100
C1044       C  0.08067695  0.00677705  0.74926406     0.03300
C1045       C  0.09872918  0.00405550  0.72206436    -0.13200
C1046       C  0.12708386  0.02158566  0.71721476    -0.08800
C1047       C  0.13450953  0.04491591  0.74028965     0.06700
C1048       C  0.11661559  0.04689922  0.76770210    -0.13900
S1049       S  0.04464989  0.98411704  0.75381528    -0.30900
H1050       H  0.08914670  0.98926627  0.70402720     0.11000
S1051       S  0.16716584  0.07223453  0.73667856    -0.28000
H1052       H  0.12365870  0.06302235  0.78597648     0.08200
H1053       H  0.01508103  0.09757704  0.82395564     0.26700
H1054       H  0.04862645  0.96486772  0.72757821     0.21500
H1055       H  0.15594336  0.09468407  0.75768144     0.26800
H1056       H  0.12778408  0.98733508  0.79911107     0.15600
C1057       C  0.10084752  0.01399714  0.16586876    -0.11700
C1058       C  0.08765185  0.03592866  0.18596498     0.14900
C1059       C  0.06780553  0.05901462  0.17345326     0.01800
C1060       C  0.06042734  0.05857706  0.14139750    -0.16000
C1061       C  0.07189213  0.03505950  0.12179985    -0.10800
C1062       C  0.09348398  0.01352167  0.13408883     0.08500
C1063       C  0.09768158  0.03513448  0.21914248     0.09500
S1064       S  0.05002722  0.08848599  0.19735135    -0.25200
H1065       H  0.04388187  0.07527685  0.13223960     0.19800
S1066       S  0.11245446  0.98476050  0.11030296    -0.30900
H1067       H  0.11717079  0.99709026  0.17507914     0.10100
C1068       C  0.08854272  0.01063516  0.23938831     0.03300
C1069       C  0.10408659  0.00691769  0.26812730    -0.13200
C1070       C  0.13050914  0.02577220  0.27642879    -0.08800
C1071       C  0.13633515  0.05306604  0.25730200     0.06700
C1072       C  0.12000457  0.05704815  0.22911296    -0.13900
S1073       S  0.05711898  0.98394413  0.22836010    -0.30900
H1074       H  0.09540616  0.98894719  0.28373791     0.11000
S1075       S  0.16679054  0.08168855  0.26580484    -0.28000
H1076       H  0.12598952  0.07637689  0.21363165     0.08200
H1077       H  0.11138528  0.00235456  0.08242018     0.26700
H1078       H  0.05589771  0.96689925  0.25658164     0.21500
H1079       H  0.16784087  0.09682245  0.23652783     0.26800
H1080       H  0.04935964  0.07089126  0.22522385     0.15600
C1081       C  0.22040730  0.48844580  0.26666539    -0.11700
C1082       C  0.21053312  0.51258596  0.24722847     0.14900
C1083       C  0.19219030  0.53648817  0.25992232     0.01800
C1084       C  0.18457994  0.53590136  0.29185514    -0.16000
C1085       C  0.19441768  0.51171124  0.31228852    -0.10800
C1086       C  0.21267721  0.48736717  0.29853000     0.08500
C1087       C  0.21834030  0.51074305  0.21347734     0.09500
S1088       S  0.17686376  0.56806376  0.23658921    -0.25200
H1089       H  0.16940368  0.55406002  0.30003082     0.19800
S1090       S  0.22701721  0.45413922  0.32031195    -0.30900
H1091       H  0.23391868  0.46983201  0.25647099     0.10100
C1092       C  0.24206751  0.52964610  0.19966822     0.03300
C1093       C  0.24826988  0.52686149  0.16750723    -0.13200
C1094       C  0.23130271  0.50543481  0.14882870    -0.08800
C1095       C  0.20758356  0.48647367  0.16297994     0.06700
C1096       C  0.20183269  0.48895349  0.19509431    -0.13900
S1097       S  0.26454086  0.55708470  0.22302909    -0.30900
H1098       H  0.26629814  0.54156250  0.15677094     0.11000
S1099       S  0.18217699  0.46038873  0.14117024    -0.28000
H1100       H  0.18353643  0.47446569  0.20573414     0.08200
H1101       H  0.25175332  0.44667757  0.29994672     0.26700
H1102       H  0.28484685  0.56760548  0.19903346     0.21500
H1103       H  0.17727015  0.48169036  0.11654259     0.26800
H1104       H  0.17586849  0.55225499  0.20788419     0.15600
C1105       C  0.23726049  0.50497454  0.42219482    -0.11700
C1106       C  0.26713817  0.50496892  0.40888937     0.14900
C1107       C  0.27077968  0.51138438  0.37683792     0.01800
C1108       C  0.24421615  0.51523312  0.35830529    -0.16000
C1109       C  0.21328118  0.51189686  0.37040120    -0.10800
C1110       C  0.21040458  0.50935387  0.40386960     0.08500
C1111       C  0.29440342  0.49969939  0.42916802     0.09500
S1112       S  0.30865574  0.51432350  0.35771695    -0.25200
H1113       H  0.24841589  0.52078665  0.33400325     0.19800
S1114       S  0.17314556  0.50879013  0.42438431    -0.30900
H1115       H  0.23509165  0.50107860  0.44716726     0.10100
C1116       C  0.30681934  0.52417880  0.44743399     0.03300
C1117       C  0.33612526  0.52061356  0.46143756    -0.13200
C1118       C  0.35291444  0.49295152  0.45789558    -0.08800
C1119       C  0.33940935  0.46746654  0.44157809     0.06700
C1120       C  0.31005768  0.47114954  0.42741423    -0.13900
S1121       S  0.28672445  0.56090741  0.45056616    -0.30900
H1122       H  0.34685206  0.54005224  0.47383584     0.11000
S1123       S  0.35879402  0.43060330  0.43604426    -0.28000
H1124       H  0.30015080  0.45231724  0.41346907     0.08200
H1125       H  0.18492517  0.51233403  0.45491880     0.26700
H1126       H  0.30813945  0.57536331  0.47122997     0.21500
H1127       H  0.38926222  0.43941966  0.44535936     0.26800
H1128       H  0.32634894  0.52386428  0.38379503     0.15600
C1129       C  0.75021747  0.49376665  0.19427327    -0.11700
C1130       C  0.77347071  0.51514340  0.20446173     0.14900
C1131       C  0.78703327  0.53622702  0.18258696     0.01800
C1132       C  0.77702043  0.53569542  0.15134589    -0.16000
C1133       C  0.75418613  0.51394682  0.14083842    -0.10800
C1134       C  0.74029097  0.49306121  0.16290743     0.08500
C1135       C  0.78301175  0.51486290  0.23799945     0.09500
S1136       S  0.81767105  0.56396147  0.19295141    -0.25200
H1137       H  0.78820347  0.55163572  0.13477226     0.19800
S1138       S  0.70916623  0.46571312  0.15286692    -0.30900
H1139       H  0.73948673  0.47769562  0.21100614     0.10100
C1140       C  0.77209940  0.53693899  0.25934657     0.03300
C1141       C  0.78027501  0.53441530  0.29105337    -0.13200
C1142       C  0.79863072  0.50959463  0.30323529    -0.08800
C1143       C  0.81134006  0.48852658  0.28029267     0.06700
C1144       C  0.80317679  0.49171784  0.24856901    -0.13900
S1145       S  0.74636575  0.56757881  0.24648850    -0.30900
H1146       H  0.77086631  0.55134079  0.30711334     0.11000
S1147       S  0.83653246  0.45570105  0.28714086    -0.28000
H1148       H  0.81209027  0.47521582  0.23170057     0.08200
H1149       H  0.69551127  0.48483625  0.12990310     0.26700
H1150       H  0.74437264  0.58316107  0.27530018     0.21500
H1151       H  0.81531338  0.43874543  0.30605267     0.26800
H1152       H  0.83190054  0.54515820  0.21577507     0.15600
C1153       C  0.66086886  0.47446032  0.40174537    -0.11700
C1154       C  0.66573989  0.49735900  0.37851145     0.14900
C1155       C  0.64078806  0.51678545  0.36972620     0.01800
C1156       C  0.61237829  0.51457594  0.38603981    -0.16000
C1157       C  0.60793610  0.49277958  0.41038777    -0.10800
C1158       C  0.63213511  0.47178288  0.41759832     0.08500
C1159       C  0.69790795  0.50223709  0.36624504     0.09500
S1160       S  0.64424683  0.54601338  0.33926189    -0.25200
H1161       H  0.59384777  0.53073670  0.38038316     0.19800
S1162       S  0.62900397  0.44375723  0.44906917    -0.30900
H1163       H  0.68004150  0.45949161  0.40847980     0.10100
C1164       C  0.71743343  0.52649779  0.37727917     0.03300
C1165       C  0.74877233  0.52851941  0.36733096    -0.13200
C1166       C  0.76258484  0.50510218  0.34861150    -0.08800
C1167       C  0.74104071  0.48272073  0.33486383     0.06700
C1168       C  0.70949993  0.48137072  0.34441641    -0.13900
S1169       S  0.70269029  0.55462598  0.40481369    -0.30900
H1170       H  0.76210818  0.54874683  0.37475172     0.11000
S1171       S  0.75265216  0.45279399  0.30784285    -0.28000
H1172       H  0.69394222  0.46306235  0.33570677     0.08200
H1173       H  0.60095506  0.43006773  0.43783341     0.26700
H1174       H  0.73208359  0.56749468  0.41341457     0.21500
H1175       H  0.72313204  0.44901152  0.29334929     0.26800
H1176       H  0.66830264  0.53162040  0.32236554     0.15600
C1177       C  0.86462009  0.96657456  0.76961055    -0.11700
C1178       C  0.88291672  0.99020860  0.78311959     0.14900
C1179       C  0.89073326  0.01702985  0.76519210     0.01800
C1180       C  0.87908012  0.02011900  0.73471547    -0.16000
C1181       C  0.85743896  0.99822320  0.72184367    -0.10800
C1182       C  0.85137574  0.97009822  0.73979732     0.08500
C1183       C  0.89497262  0.98527765  0.81532230     0.09500
S1184       S  0.91469849  0.04877463  0.78019413    -0.25200
H1185       H  0.88685409  0.04034791  0.72155855     0.19800
S1186       S  0.82378273  0.93973917  0.72767848    -0.30900
H1187       H  0.85977695  0.94562623  0.78323904     0.10100
C1188       C  0.87491814  0.98364043  0.84175267     0.03300
C1189       C  0.88800914  0.98075934  0.87183454    -0.13200
C1190       C  0.92063959  0.97952185  0.87587831    -0.08800
C1191       C  0.94043561  0.97999383  0.84926345     0.06700
C1192       C  0.92737088  0.98236217  0.81937748    -0.13900
S1193       S  0.83294426  0.98751194  0.83754014    -0.30900
H1194       H  0.87303685  0.98141774  0.89231608     0.11000
S1195       S  0.98266676  0.97959042  0.85311823    -0.28000
H1196       H  0.94250217  0.98314957  0.79899019     0.08200
H1197       H  0.82477361  0.92075120  0.75459953     0.26700
H1198       H  0.82520080  0.98226241  0.86916428     0.21500
H1199       H  0.98997654  0.97852843  0.82104172     0.26800
H1200       H  0.90397614  0.04610949  0.81124286     0.15600
C1201       C  0.86961403  0.98949845  0.22360514    -0.11700
C1202       C  0.90222653  0.99215181  0.22594550     0.14900
C1203       C  0.91564428  0.00064918  0.25475379     0.01800
C1204       C  0.89608721  0.00811582  0.27976883    -0.16000
C1205       C  0.86278405  0.00625405  0.27803157    -0.10800
C1206       C  0.84992934  0.99360316  0.24945065     0.08500
C1207       C  0.92111677  0.98797703  0.19719409     0.09500
S1208       S  0.95754403  0.00174454  0.26146388    -0.25200
H1209       H  0.90733582  0.01491950  0.30131800     0.19800
S1210       S  0.81027870  0.97809811  0.24441172    -0.30900
H1211       H  0.85948924  0.98297509  0.20127979     0.10100
C1212       C  0.91874267  0.96058582  0.17882644     0.03300
C1213       C  0.93309301  0.96009284  0.14922132    -0.13200
C1214       C  0.95033309  0.98610236  0.13823750    -0.08800
C1215       C  0.95467793  0.01229342  0.15770453     0.06700
C1216       C  0.93957314  0.01328455  0.18656630    -0.13900
S1217       S  0.89726601  0.92644685  0.19282061    -0.30900
H1218       H  0.92995536  0.93999295  0.13416449     0.11000
S1219       S  0.97841554  0.04566355  0.14652572    -0.28000
H1220       H  0.94158420  0.03431786  0.20052068     0.08200
H1221       H  0.81575459  0.95927029  0.21812929     0.26700
H1222       H  0.90553861  0.90651337  0.16818734     0.21500
H1223       H  0.99893257  0.02926446  0.12712526     0.26800
H1224       H  0.96493539  0.97880861  0.23931188     0.15600
C1225       C  0.22354364  0.53461631  0.73672125    -0.11700
C1226       C  0.20169346  0.52129741  0.75738851     0.14900
C1227       C  0.17198276  0.51213398  0.74570719     0.01800
C1228       C  0.16638514  0.51307646  0.71330843    -0.16000
C1229       C  0.18979650  0.52235265  0.69143332    -0.10800
C1230       C  0.21750548  0.53726302  0.70454723     0.08500
C1231       C  0.21067489  0.51881586  0.79101545     0.09500
S1232       S  0.14033134  0.49852476  0.77070838    -0.25200
H1233       H  0.14386117  0.50470491  0.70514633     0.19800
S1234       S  0.24396399  0.56361786  0.68326905    -0.30900
H1235       H  0.24540826  0.54371767  0.74626148     0.10100
C1236       C  0.21591843  0.48979513  0.80569090     0.03300
C1237       C  0.22560794  0.48889789  0.83717926    -0.13200
C1238       C  0.23062823  0.51647188  0.85463253    -0.08800
C1239       C  0.22715923  0.54565554  0.83878270     0.06700
C1240       C  0.21676225  0.54633142  0.80771384    -0.13900
S1241       S  0.21105388  0.45386916  0.78406247    -0.30900
H1242       H  0.22888767  0.46641931  0.84830631     0.11000
S1243       S  0.23623224  0.58322501  0.85580430    -0.28000
H1244       H  0.21386662  0.56871621  0.79614076     0.08200
H1245       H  0.26389029  0.57263476  0.70797228     0.26700
H1246       H  0.21875854  0.43341637  0.80863779     0.21500
H1247       H  0.26645967  0.57429957  0.86523081     0.26800
H1248       H  0.15032726  0.51415131  0.79787637     0.15600
C1249       C  0.25076756  0.54868292  0.59943747    -0.11700
C1250       C  0.27537507  0.53072623  0.61085263     0.14900
C1251       C  0.26873186  0.50678667  0.63259749     0.01800
C1252       C  0.23819904  0.50293690  0.64408440    -0.16000
C1253       C  0.21340111  0.52296701  0.63558854    -0.10800
C1254       C  0.21968947  0.54410305  0.60988863     0.08500
C1255       C  0.30698152  0.53495183  0.59689866     0.09500
S1256       S  0.29826975  0.48082643  0.64747304    -0.25200
H1257       H  0.23430910  0.48484805  0.66120604     0.19800
S1258       S  0.18995250  0.56120370  0.58515366    -0.30900
H1259       H  0.25587967  0.56520785  0.58074818     0.10100
C1260       C  0.31258541  0.52538656  0.56596533     0.03300
C1261       C  0.34325844  0.52623914  0.55442052    -0.13200
C1262       C  0.36865137  0.53597526  0.57315304    -0.08800
C1263       C  0.36304427  0.54653652  0.60382005     0.06700
C1264       C  0.33209527  0.54628564  0.61527504    -0.13900
S1265       S  0.28108726  0.50986743  0.54185924    -0.30900
H1266       H  0.34776985  0.51812423  0.53091785     0.11000
S1267       S  0.39424083  0.55856023  0.62993500    -0.28000
H1268       H  0.32770066  0.55353718  0.63911017     0.08200
H1269       H  0.20890101  0.58483043  0.57140599     0.26700
H1270       H  0.29949790  0.50260562  0.51567435     0.21500
H1271       H  0.41717623  0.53852483  0.61809374     0.26800
H1272       H  0.31636519  0.47976542  0.61999386     0.15600
C1273       C  0.74731911  0.51866708  0.79433103    -0.11700
C1274       C  0.77239776  0.50056029  0.78396248     0.14900
C1275       C  0.78987061  0.48310108  0.80571678     0.01800
C1276       C  0.78179835  0.48414019  0.83735877    -0.16000
C1277       C  0.75721152  0.50285444  0.84792973    -0.10800
C1278       C  0.73931993  0.51975219  0.82603012     0.08500
C1279       C  0.78065343  0.50184731  0.75056059     0.09500
S1280       S  0.82298034  0.45956555  0.79494975    -0.25200
H1281       H  0.79561734  0.47111491  0.85407162     0.19800
S1282       S  0.70560208  0.54224376  0.83682696    -0.30900
H1283       H  0.73383670  0.53194432  0.77753194     0.10100
C1284       C  0.77249116  0.47800682  0.72947757     0.03300
C1285       C  0.78111931  0.48127063  0.69808239    -0.13200
C1286       C  0.79717035  0.50834007  0.68626335    -0.08800
C1287       C  0.80814665  0.53075734  0.70913271     0.06700
C1288       C  0.79837893  0.52757076  0.74020678    -0.13900
S1289       S  0.75005064  0.44341687  0.74053239    -0.30900
H1290       H  0.77329418  0.46314175  0.68211897     0.11000
S1291       S  0.83621333  0.56283641  0.70412965    -0.28000
H1292       H  0.80579754  0.54497859  0.75717705     0.08200
H1293       H  0.69642288  0.52307527  0.86219954     0.26700
H1294       H  0.73651527  0.45504942  0.76797590     0.21500
H1295       H  0.85826984  0.54772991  0.68560709     0.26800
H1296       H  0.83157156  0.47582081  0.76753949     0.15600
C1297       C  0.71431717  0.52171597  0.62152894    -0.11700
C1298       C  0.71912563  0.52468014  0.58939001     0.14900
C1299       C  0.74970893  0.52235511  0.57748159     0.01800
C1300       C  0.77432692  0.51520421  0.59773588    -0.16000
C1301       C  0.77060249  0.51268159  0.63083148    -0.10800
C1302       C  0.73918069  0.51748858  0.64264269     0.08500
C1303       C  0.69115804  0.52950772  0.56936137     0.09500
S1304       S  0.75916561  0.52928934  0.53683876    -0.25200
H1305       H  0.79741465  0.51274958  0.58742858     0.19800
S1306       S  0.72844076  0.52284847  0.68332887    -0.30900
H1307       H  0.69051181  0.52378682  0.63017189     0.10100
C1308       C  0.67965819  0.50567109  0.54959302     0.03300
C1309       C  0.65026297  0.50888902  0.53533108    -0.13200
C1310       C  0.63199997  0.53534871  0.54053627    -0.08800
C1311       C  0.64426476  0.56007516  0.55881761     0.06700
C1312       C  0.67365701  0.55681630  0.57315734    -0.13900
S1313       S  0.70057584  0.46963201  0.54507472    -0.30900
H1314       H  0.64054738  0.48980590  0.52161764     0.11000
S1315       S  0.62248013  0.59491278  0.56702087    -0.28000
H1316       H  0.68241977  0.57514437  0.58843170     0.08200
H1317       H  0.69803178  0.53458280  0.67932159     0.26700
H1318       H  0.68586429  0.46091117  0.51689629     0.21500
H1319       H  0.60555239  0.59532911  0.53884657     0.26800
H1320       H  0.73464692  0.55012775  0.53097113     0.15600
C1321       C  0.98223953  0.31023435  0.31093179    -0.11700
C1322       C  0.98768273  0.28589875  0.28991071     0.14900
C1323       C  0.99532482  0.25594924  0.30150372     0.01800
C1324       C  0.99729767  0.25110442  0.33386214    -0.16000
C1325       C  0.99164899  0.27544621  0.35481853    -0.10800
C1326       C  0.98436185  0.30544549  0.34320169     0.08500
C1327       C  0.98694380  0.29313491  0.25609916     0.09500
S1328       S  0.00283717  0.22298486  0.27650924    -0.25200
H1329       H  0.00275106  0.22806934  0.34276555     0.19800
S1330       S  0.97817679  0.33884921  0.36804244    -0.30900
H1331       H  0.97685179  0.33331362  0.30204878     0.10100
C1332       C  0.95859628  0.29643614  0.23996261     0.03300
C1333       C  0.95921110  0.30303924  0.20785957    -0.13200
C1334       C  0.98750973  0.30862811  0.19097550    -0.08800
C1335       C  0.01628073  0.30342435  0.20789650     0.06700
C1336       C  0.01528272  0.29661097  0.24003278    -0.13900
S1337       S  0.92147610  0.29144688  0.26016481    -0.30900
H1338       H  0.93702466  0.30419586  0.19606050     0.11000
S1339       S  0.05528461  0.30459929  0.19084091    -0.28000
H1340       H  0.03694827  0.29378971  0.25296541     0.08200
H1341       H  0.99495020  0.32836282  0.39421383     0.26700
H1342       H  0.90201484  0.29929941  0.23483329     0.21500
H1343       H  0.06956834  0.28464312  0.21269379     0.26800
H1344       H  0.98682236  0.23363554  0.24991099     0.15600
C1345       C  0.02076601  0.27464705  0.69918209    -0.11700
C1346       C  0.99215621  0.28216937  0.71343731     0.14900
C1347       C  0.96457653  0.28173465  0.69509657     0.01800
C1348       C  0.96607435  0.27296184  0.66361832    -0.16000
C1349       C  0.99488807  0.26727155  0.64853154    -0.10800
C1350       C  0.02248689  0.26705651  0.66728520     0.08500
C1351       C  0.99202990  0.29106871  0.74715861     0.09500
S1352       S  0.92703306  0.29424397  0.70972057    -0.25200
H1353       H  0.94438731  0.27217500  0.65045390     0.19800
S1354       S  0.06046270  0.25613258  0.65274657    -0.30900
H1355       H  0.04202067  0.27455255  0.71314297     0.10100
C1356       C  0.97463504  0.27420757  0.76980997     0.03300
C1357       C  0.97380052  0.28502297  0.80073548    -0.13200
C1358       C  0.99310419  0.31018465  0.81130579    -0.08800
C1359       C  0.00902725  0.32834684  0.78747320     0.06700
C1360       C  0.00860626  0.31803550  0.75625408    -0.13900
S1361       S  0.95510481  0.23767907  0.75997502    -0.30900
H1362       H  0.95959242  0.27220463  0.81756642     0.11000
S1363       S  0.02649606  0.36678792  0.79363428    -0.28000
H1364       H  0.02043315  0.33178906  0.73827961     0.08200
H1365       H  0.04840345  0.22966527  0.63708268     0.26700
H1366       H  0.94038294  0.23249937  0.78906663     0.21500
H1367       H  0.04611755  0.36732993  0.76711147     0.26800
H1368       H  0.93928593  0.31700511  0.73020684     0.15600
C1369       C  0.88117758  0.38118623  0.38512954    -0.11700
C1370       C  0.88156481  0.41194538  0.39608478     0.14900
C1371       C  0.89972205  0.41956009  0.42267853     0.01800
C1372       C  0.91764749  0.39643434  0.43714871    -0.16000
C1373       C  0.91710571  0.36523363  0.42660173    -0.10800
C1374       C  0.89833078  0.35769782  0.39999795     0.08500
C1375       C  0.86078019  0.43472249  0.38052650     0.09500
S1376       S  0.90035591  0.45801229  0.43995966    -0.25200
H1377       H  0.93131549  0.40281179  0.45758841     0.19800
S1378       S  0.89599272  0.31884041  0.38346797    -0.30900
H1379       H  0.86711686  0.37557066  0.36473384     0.10100
C1380       C  0.87239897  0.45966641  0.36233889     0.03300
C1381       C  0.85136457  0.48113525  0.34960785    -0.13200
C1382       C  0.81815391  0.47847803  0.35357081    -0.08800
C1383       C  0.80699425  0.45255478  0.37268824     0.06700
C1384       C  0.82848654  0.43119295  0.38489939    -0.13900
S1385       S  0.91404311  0.46387000  0.35478442    -0.30900
H1386       H  0.86096271  0.50024792  0.33571001     0.11000
S1387       S  0.76748901  0.44660812  0.38756286    -0.28000
H1388       H  0.82020436  0.41217905  0.39980427     0.08200
H1389       H  0.86747734  0.32275540  0.36737920     0.26700
H1390       H  0.91233908  0.48994491  0.33469893     0.21500
H1391       H  0.76849794  0.41383437  0.39050447     0.26800
H1392       H  0.86983041  0.46636793  0.43107803     0.15600
C1393       C  0.86490746  0.44350218  0.64310580    -0.11700
C1394       C  0.85384711  0.42698696  0.61726415     0.14900
C1395       C  0.82275918  0.43146328  0.60725688     0.01800
C1396       C  0.80530815  0.45571291  0.62014322    -0.16000
C1397       C  0.81838062  0.47669996  0.64245787    -0.10800
C1398       C  0.84736811  0.46723590  0.65668676     0.08500
C1399       C  0.87572580  0.40573091  0.60132644     0.09500
S1400       S  0.80420725  0.40741430  0.57774507    -0.25200
H1401       H  0.78154576  0.45807170  0.61181196     0.19800
S1402       S  0.86489648  0.48601855  0.69025934    -0.30900
H1403       H  0.88825125  0.43870164  0.65180485     0.10100
C1404       C  0.88652608  0.41161663  0.57057370     0.03300
C1405       C  0.90721303  0.39063783  0.55655514    -0.13200
C1406       C  0.91822465  0.36457143  0.57311390    -0.08800
C1407       C  0.90952045  0.36058711  0.60480122     0.06700
C1408       C  0.88786744  0.38060446  0.61827155    -0.13900
S1409       S  0.87484542  0.44629593  0.54956859    -0.30900
H1410       H  0.91437680  0.39422900  0.53246812     0.11000
S1411       S  0.92651266  0.33164737  0.62988594    -0.28000
H1412       H  0.88084923  0.37694347  0.64242143     0.08200
H1413       H  0.88572573  0.46211499  0.69837624     0.26700
H1414       H  0.89332974  0.44150266  0.52276678     0.21500
H1415       H  0.95628853  0.33250409  0.61546911     0.26800
H1416       H  0.82294633  0.38103118  0.58226636     0.15600
C1417       C  0.08022101  0.41804005  0.59775106    -0.11700
C1418       C  0.11229047  0.41178941  0.60198169     0.14900
C1419       C  0.12400871  0.38298216  0.59165464     0.01800
C1420       C  0.10371217  0.36142098  0.57708644    -0.16000
C1421       C  0.07175847  0.36788497  0.57200902    -0.10800
C1422       C  0.05982103  0.39635808  0.58328593     0.08500
C1423       C  0.13310943  0.43656088  0.61547598     0.09500
S1424       S  0.16470005  0.37252789  0.59573077    -0.25200
H1425       H  0.11326778  0.33963245  0.56882879     0.19800
S1426       S  0.01873804  0.40582931  0.58126135    -0.30900
H1427       H  0.07101900  0.44002433  0.60589873     0.10100
C1428       C  0.14138392  0.46299979  0.59776028     0.03300
C1429       C  0.15918943  0.48694454  0.61148331    -0.13200
C1430       C  0.16884094  0.48665703  0.64332591    -0.08800
C1431       C  0.16378431  0.45745117  0.65977808     0.06700
C1432       C  0.14519313  0.43360337  0.64582430    -0.13900
S1433       S  0.12844113  0.46688234  0.55762530    -0.30900
H1434       H  0.16338135  0.50741433  0.59755723     0.11000
S1435       S  0.17978670  0.44607405  0.69724137    -0.28000
H1436       H  0.14014533  0.41222580  0.65876475     0.08200
H1437       H  0.00764428  0.37514099  0.58712778     0.26700
H1438       H  0.14483464  0.49493134  0.55064188     0.21500
H1439       H  0.20680656  0.46487946  0.69754511     0.26800
H1440       H  0.17735536  0.40293624  0.59229510     0.15600
C1441       C  0.09205702  0.38250069  0.37350039    -0.11700
C1442       C  0.10024825  0.41084626  0.38761252     0.14900
C1443       C  0.08822121  0.41809562  0.41746528     0.01800
C1444       C  0.06997451  0.39580782  0.43344513    -0.16000
C1445       C  0.06338028  0.36643488  0.42029642    -0.10800
C1446       C  0.07367860  0.36012907  0.38940660     0.08500
C1447       C  0.12407501  0.43087075  0.37225711     0.09500
S1448       S  0.09666127  0.45449726  0.43728681    -0.25200
H1449       H  0.06196995  0.40102823  0.45689372     0.19800
S1450       S  0.06411934  0.32382345  0.36977516    -0.30900
H1451       H  0.10132066  0.37742365  0.35050726     0.10100
C1452       C  0.15477521  0.43247532  0.38385368     0.03300
C1453       C  0.17520190  0.45575118  0.37266680    -0.13200
C1454       C  0.16504806  0.47921827  0.35158455    -0.08800
C1455       C  0.13614810  0.47288368  0.33536315     0.06700
C1456       C  0.11574728  0.44922850  0.34661006    -0.13900
S1457       S  0.16755511  0.40561057  0.41389370    -0.30900
H1458       H  0.19880206  0.45593780  0.38171579     0.11000
S1459       S  0.12212366  0.49729823  0.30383483    -0.28000
H1460       H  0.09242132  0.44628985  0.33683092     0.08200
H1461       H  0.07476875  0.33276876  0.33981633     0.26700
H1462       H  0.19712223  0.41977895  0.41940712     0.21500
H1463       H  0.09440024  0.48020339  0.29717758     0.26800
H1464       H  0.10425157  0.47226639  0.41060140     0.15600
C1465       C  0.09638123  0.11419912  0.58242497    -0.11700
C1466       C  0.10779050  0.12508831  0.61119983     0.14900
C1467       C  0.10475885  0.15664366  0.61928456     0.01800
C1468       C  0.08877815  0.17628686  0.59908148    -0.16000
C1469       C  0.07498172  0.16509625  0.57118908    -0.10800
C1470       C  0.08021005  0.13385899  0.56222049     0.08500
C1471       C  0.11857750  0.10186977  0.63367805     0.09500
S1472       S  0.11927815  0.17322599  0.65540879    -0.25200
H1473       H  0.08595787  0.20031992  0.60620244     0.19800
S1474       S  0.06761984  0.11768329  0.52548774    -0.30900
H1475       H  0.09923419  0.08986744  0.57618962     0.10100
C1476       C  0.09658302  0.08206992  0.64825564     0.03300
C1477       C  0.10722358  0.05700730  0.66562174    -0.13200
C1478       C  0.13976774  0.05080892  0.66955246    -0.08800
C1479       C  0.16173879  0.07426532  0.65839864     0.06700
C1480       C  0.15061584  0.09874647  0.63961033    -0.13900
S1481       S  0.05475890  0.08744758  0.64301567    -0.30900
H1482       H  0.08967287  0.04052053  0.67407526     0.11000
S1483       S  0.20293535  0.07671504  0.66873064    -0.28000
H1484       H  0.16681205  0.11582174  0.62950032     0.08200
H1485       H  0.07725379  0.14443691  0.50845212     0.26700
H1486       H  0.04434085  0.06088908  0.65987766     0.21500
H1487       H  0.21276133  0.09753875  0.64493393     0.26800
H1488       H  0.11866936  0.14579332  0.67358049     0.15600
C1489       C  0.92539567  0.10789370  0.60952116    -0.11700
C1490       C  0.89331583  0.11096437  0.61651833     0.14900
C1491       C  0.87741979  0.13755432  0.60557208     0.01800
C1492       C  0.89368854  0.16011482  0.58767627    -0.16000
C1493       C  0.92552173  0.15665173  0.57976491    -0.10800
C1494       C  0.94172600  0.13042512  0.59140278     0.08500
C1495       C  0.87704574  0.08537122  0.63422463     0.09500
S1496       S  0.83631516  0.14388292  0.61312068    -0.25200
H1497       H  0.88110002  0.18025134  0.57917286     0.19800
S1498       S  0.98350436  0.12632130  0.58500569    -0.30900
H1499       H  0.93757973  0.08766576  0.61835507     0.10100
C1500       C  0.87167406  0.05619705  0.62037353     0.03300
C1501       C  0.85782289  0.03203355  0.63797629    -0.13200
C1502       C  0.85084709  0.03478904  0.67055537    -0.08800
C1503       C  0.85124088  0.06607159  0.68217702     0.06700
C1504       C  0.86566786  0.09042368  0.66452627    -0.13900
S1505       S  0.88187446  0.04975261  0.57980473    -0.30900
H1506       H  0.85263079  0.01070746  0.62554859     0.11000
S1507       S  0.83235953  0.07637662  0.71833785    -0.28000
H1508       H  0.86786163  0.11371625  0.67414812     0.08200
H1509       H  0.98661519  0.09739918  0.60042353     0.26700
H1510       H  0.87047783  0.01876451  0.57766826     0.21500
H1511       H  0.84029989  0.10843695  0.71811753     0.26800
H1512       H  0.82696699  0.11219384  0.61294317     0.15600
C1513       C  0.84949947  0.07871477  0.37115307    -0.11700
C1514       C  0.87286420  0.09838782  0.35855956     0.14900
C1515       C  0.88290792  0.09354622  0.32761345     0.01800
C1516       C  0.87214430  0.06715944  0.31131299    -0.16000
C1517       C  0.85141154  0.04466439  0.32510974    -0.10800
C1518       C  0.83820356  0.05242681  0.35493714     0.08500
C1519       C  0.88917246  0.12071570  0.37978018     0.09500
S1520       S  0.91018374  0.11978639  0.30791605    -0.25200
H1521       H  0.88069250  0.06439429  0.28774397     0.19800
S1522       S  0.81080501  0.02709521  0.37579848    -0.30900
H1523       H  0.84186125  0.08259206  0.39497593     0.10100
C1524       C  0.87312043  0.14495393  0.39482443     0.03300
C1525       C  0.88934647  0.16415971  0.41612719    -0.13200
C1526       C  0.92137116  0.15975599  0.42271458    -0.08800
C1527       C  0.93737159  0.13554700  0.40741248     0.06700
C1528       C  0.92112354  0.11626321  0.38634540    -0.13900
S1529       S  0.83246918  0.15248261  0.38571922    -0.30900
H1530       H  0.87720609  0.18313191  0.42732582     0.11000
S1531       S  0.97903830  0.13010596  0.41151093    -0.28000
H1532       H  0.93353215  0.09761097  0.37485869     0.08200
H1533       H  0.80009666  0.04956575  0.39704490     0.26700
H1534       H  0.82840960  0.17671538  0.40739738     0.21500
H1535       H  0.97674888  0.12212782  0.44340051     0.26800
H1536       H  0.90298803  0.14640773  0.32553294     0.15600
C1537       C  0.09839323  0.14589906  0.37799829    -0.11700
C1538       C  0.10313135  0.11623941  0.39088579     0.14900
C1539       C  0.09027116  0.10887333  0.42053466     0.01800
C1540       C  0.07218006  0.13100070  0.43610890    -0.16000
C1541       C  0.06724591  0.16089544  0.42331518    -0.10800
C1542       C  0.08019472  0.16796264  0.39338876     0.08500
C1543       C  0.11644021  0.09208397  0.37032261     0.09500
S1544       S  0.09546179  0.07139773  0.43928353    -0.25200
H1545       H  0.06198727  0.12474631  0.45847464     0.19800
S1546       S  0.07195571  0.20321722  0.37181969    -0.30900
H1547       H  0.10728449  0.15117975  0.35474720     0.10100
C1548       C  0.09651306  0.07047679  0.35552954     0.03300
C1549       C  0.10917230  0.04878106  0.33517871    -0.13200
C1550       C  0.14182092  0.04754738  0.32793749    -0.17600
C1551       C  0.16174202  0.07114494  0.34207086     0.06700
C1552       C  0.14853929  0.09260301  0.36314861    -0.13900
S1553       S  0.05447074  0.07073656  0.36203621    -0.30900
H1554       H  0.09319151  0.03150450  0.32541956     0.11000
S1555       S  0.20279267  0.07810187  0.33281246    -0.28000
H1556       H  0.16316088  0.11068799  0.37363616     0.08200
H1557       H  0.03994146  0.20310085  0.38015074     0.26700
H1558       H  0.04607612  0.04966144  0.33817642     0.21500
H1559       H  0.21087728  0.09501501  0.35986444     0.26800
H1560       H  0.12377147  0.06420019  0.42416462     0.15600
C1561       C  0.97548237  0.70491943  0.24482317    -0.11700
C1562       C  0.99806740  0.72772032  0.25250335     0.14900
C1563       C  0.02049919  0.73686698  0.22993033     0.01800
C1564       C  0.01870176  0.72432962  0.19983793    -0.16000
C1565       C  0.99358290  0.70421417  0.19029738    -0.10800
C1566       C  0.97298807  0.69244159  0.21458282     0.08500
C1567       C  0.99906433  0.73912621  0.28520819     0.09500
S1568       S  0.05032488  0.76648862  0.23709235    -0.25200
H1569       H  0.03558102  0.73287431  0.18268172     0.19800
S1570       S  0.94570646  0.65954480  0.21062037    -0.30900
H1571       H  0.96002271  0.69640149  0.26323863     0.10100
C1572       C  0.97336179  0.75433355  0.29889385     0.03300
C1573       C  0.97370985  0.76081765  0.33106785    -0.13200
C1574       C  0.99948935  0.75289364  0.34994014    -0.08800
C1575       C  0.02596808  0.73906795  0.33544866     0.06700
C1576       C  0.02527589  0.73234837  0.30353257    -0.13900
S1577       S  0.94023509  0.76578024  0.27530883    -0.30900
H1578       H  0.95366495  0.77193222  0.34159607     0.11000
S1579       S  0.06093556  0.72754375  0.35594003    -0.28000
H1580       H  0.04499326  0.72056363  0.29304894     0.08200
H1581       H  0.92994743  0.66209297  0.23939898     0.26700
H1582       H  0.92449760  0.78232720  0.29877753     0.21500
H1583       H  0.04409618  0.71197384  0.37963358     0.26800
H1584       H  0.03238549  0.78391271  0.25820293     0.15600
C1585       C  0.01181214  0.74702214  0.69523991    -0.11700
C1586       C  0.98892701  0.72544403  0.70593291     0.14900
C1587       C  0.96437277  0.71624268  0.68556048     0.01800
C1588       C  0.96393219  0.72791799  0.65483827    -0.16000
C1589       C  0.98763726  0.74850674  0.64360044    -0.10800
C1590       C  0.01117941  0.75898279  0.66466495     0.08500
C1591       C  0.99040654  0.71492044  0.73909900     0.09500
S1592       S  0.93333647  0.68919094  0.69698693    -0.25200
H1593       H  0.94555376  0.71973734  0.63920028     0.19800
S1594       S  0.04025250  0.78854571  0.65452859    -0.30900
H1595       H  0.03004359  0.75507719  0.71112710     0.10100
C1596       C  0.01424163  0.69529448  0.74986264     0.03300
C1597       C  0.01733057  0.68937602  0.78207075    -0.13200
C1598       C  0.99721586  0.70293254  0.80466300    -0.08800
C1599       C  0.97185499  0.72123339  0.79275797     0.06700
C1600       C  0.96905572  0.72690618  0.76051348    -0.13900
S1601       S  0.04158323  0.67858112  0.72248129    -0.30900
H1602       H  0.03731582  0.67606668  0.78914197     0.11000
S1603       S  0.94277169  0.73865198  0.81790201    -0.28000
H1604       H  0.95073708  0.74194735  0.75190416     0.08200
H1605       H  0.02031763  0.80540783  0.63460527     0.26700
H1606       H  0.05897565  0.66132640  0.74433304     0.21500
H1607       H  0.91994039  0.74366251  0.79470681     0.26800
H1608       H  0.95070139  0.67283803  0.71950309     0.15600
C1609       C  0.08013637  0.62225774  0.38633710    -0.11700
C1610       C  0.10989534  0.61524732  0.39836932     0.14900
C1611       C  0.12113115  0.63179488  0.42478364     0.01800
C1612       C  0.10242172  0.65471228  0.43837144    -0.16000
C1613       C  0.07208797  0.66056907  0.42715209    -0.10800
C1614       C  0.06080278  0.64403795  0.40074490     0.08500
C1615       C  0.12769475  0.58949655  0.38373963     0.09500
S1616       S  0.15842138  0.62400771  0.44304369    -0.25200
H1617       H  0.11115792  0.66733355  0.45860469     0.19800
S1618       S  0.02226739  0.64892544  0.38378341    -0.30900
H1619       H  0.07149215  0.60986093  0.36593633     0.10100
C1620       C  0.11534103  0.55889496  0.38346542     0.03300
C1621       C  0.13298318  0.53490564  0.37071166    -0.13200
C1622       C  0.16356042  0.53967953  0.35777976    -0.08800
C1623       C  0.17561457  0.57122443  0.35815362     0.06700
C1624       C  0.15739059  0.59541783  0.37061101    -0.13900
S1625       S  0.07810387  0.54935097  0.40216599    -0.30900
H1626       H  0.12320293  0.51193977  0.37414505     0.11000
S1627       S  0.21448664  0.58166034  0.34381934    -0.28000
H1628       H  0.16655592  0.61918843  0.37086561     0.08200
H1629       H  0.01061475  0.67157853  0.40402752     0.26700
H1630       H  0.07452964  0.51880795  0.39047511     0.21500
H1631       H  0.21297600  0.61416505  0.34817117     0.26800
H1632       H  0.15794798  0.59167629  0.43717793     0.15600
C1633       C  0.10663030  0.56311102  0.62999459    -0.11700
C1634       C  0.11946834  0.59275664  0.62409308     0.14900
C1635       C  0.14953327  0.60036891  0.63578802     0.01800
C1636       C  0.16753533  0.57688305  0.64951890    -0.16000
C1637       C  0.15741632  0.54520211  0.64938251    -0.10800
C1638       C  0.12443412  0.53965028  0.64397171     0.08500
C1639       C  0.10041481  0.61528928  0.60644459     0.09500
S1640       S  0.16763386  0.63857045  0.63087504    -0.25200
H1641       H  0.19114412  0.58298847  0.65640003     0.19800
S1642       S  0.10288155  0.50506906  0.65729847    -0.30900
H1643       H  0.08237426  0.55851969  0.62356573     0.10100
C1644       C  0.09475861  0.61152047  0.57414904     0.03300
C1645       C  0.07696173  0.63372374  0.55815687    -0.13200
C1646       C  0.06448911  0.65941759  0.57386824    -0.08800
C1647       C  0.06905887  0.66223937  0.60655026     0.06700
C1648       C  0.08726138  0.64038677  0.62234572    -0.13900
S1649       S  0.11106395  0.57908533  0.55303175    -0.30900
H1650       H  0.07344059  0.63155717  0.53316650     0.11000
S1651       S  0.05146389  0.69234224  0.62975236    -0.28000
H1652       H  0.09094157  0.64272177  0.64731975     0.08200
H1653       H  0.07286786  0.51304725  0.64646347     0.26700
H1654       H  0.09633487  0.58517344  0.52423396     0.21500
H1655       H  0.02385488  0.69392974  0.61187891     0.26800
H1656       H  0.15365775  0.64545453  0.60191167     0.15600
C1657       C  0.90773663  0.61894407  0.60656092    -0.11700
C1658       C  0.87824458  0.61080267  0.59412526     0.14900
C1659       C  0.86716468  0.62617173  0.56713940     0.01800
C1660       C  0.88554338  0.64991187  0.55357427    -0.16000
C1661       C  0.91525211  0.65753596  0.56565708    -0.10800
C1662       C  0.92657736  0.64193695  0.59236358     0.08500
C1663       C  0.85998592  0.58552029  0.60926496     0.09500
S1664       S  0.83053984  0.61570742  0.54830946    -0.25200
H1665       H  0.87710324  0.66183753  0.53285617     0.19800
S1666       S  0.96488025  0.64974581  0.60900511    -0.30900
H1667       H  0.91624413  0.60696131  0.62721062     0.10100
C1668       C  0.87022089  0.55472027  0.60813515     0.03300
C1669       C  0.85182282  0.53105317  0.62157478    -0.13200
C1670       C  0.82337992  0.53695581  0.63789994    -0.08800
C1671       C  0.81300487  0.56876011  0.63782708     0.06700
C1672       C  0.83171086  0.59234374  0.62399624    -0.13900
S1673       S  0.90577223  0.54486545  0.58740995    -0.30900
H1674       H  0.85974657  0.50785235  0.61716798     0.11000
S1675       S  0.77679385  0.58081982  0.65606969    -0.28000
H1676       H  0.82433957  0.61643627  0.62447643     0.08200
H1677       H  0.96717013  0.68124484  0.59979144     0.26700
H1678       H  0.90952388  0.51523751  0.60126754     0.21500
H1679       H  0.77660065  0.61173333  0.64471359     0.26800
H1680       H  0.83192698  0.58348932  0.55485768     0.15600
C1681       C  0.90145083  0.60136451  0.41233762    -0.11700
C1682       C  0.87378387  0.61062968  0.39738926     0.14900
C1683       C  0.86610939  0.64260959  0.39756615     0.01800
C1684       C  0.88660090  0.66447919  0.41163485    -0.16000
C1685       C  0.91467346  0.65549220  0.42654443    -0.10800
C1686       C  0.92192987  0.62309103  0.42663788     0.08500
C1687       C  0.85342907  0.58613868  0.38238665     0.09500
S1688       S  0.83021877  0.65707898  0.38084903    -0.25200
H1689       H  0.87995323  0.68881045  0.41149993     0.19800
S1690       S  0.95687261  0.60728063  0.44394992    -0.30900
H1691       H  0.90739621  0.57681808  0.41248689     0.10100
C1692       C  0.85077260  0.58326724  0.34976331     0.03300
C1693       C  0.83250447  0.55874019  0.33690002    -0.13200
C1694       C  0.81589165  0.53635074  0.35569475    -0.08800
C1695       C  0.81943140  0.53971757  0.38902723     0.06700
C1696       C  0.83772665  0.56438646  0.40147610    -0.13900
S1697       S  0.87253951  0.60962196  0.32424340    -0.30900
H1698       H  0.83308566  0.55649680  0.31184105     0.11000
S1699       S  0.80160984  0.51277421  0.41694978    -0.28000
H1700       H  0.84035330  0.56665029  0.42655149     0.08200
H1701       H  0.97707640  0.62973318  0.43027016     0.26700
H1702       H  0.85768843  0.60063130  0.29622258     0.21500
H1703       H  0.81048605  0.52818401  0.44462784     0.26800
H1704       H  0.81209576  0.62959865  0.38523022     0.15600
C1705       C  0.10857940  0.88382331  0.38324987    -0.11700
C1706       C  0.09588436  0.91370804  0.38079836     0.14900
C1707       C  0.06745317  0.91980057  0.39673069     0.01800
C1708       C  0.05357468  0.89665514  0.41597233    -0.16000
C1709       C  0.06655365  0.86673559  0.41910337    -0.10800
C1710       C  0.09455705  0.86045666  0.40202821     0.08500
C1711       C  0.11355786  0.93836664  0.36274273     0.09500
S1712       S  0.04719292  0.95638504  0.39298096    -0.25200
H1713       H  0.03185180  0.90191269  0.42793762     0.19800
S1714       S  0.11466126  0.82368123  0.40328976    -0.30900
H1715       H  0.13027862  0.87888960  0.37106563     0.10100
C1716       C  0.12525661  0.96546082  0.37733301     0.03300
C1717       C  0.13806535  0.98977739  0.35905873    -0.13200
C1718       C  0.14034863  0.98821443  0.32579937    -0.08800
C1719       C  0.13540395  0.95774451  0.31289328     0.06700
C1720       C  0.12040310  0.93404172  0.33096581    -0.13900
S1721       S  0.12489714  0.96887700  0.41948565    -0.30900
H1722       H  0.14629716  0.01030434  0.37137762     0.11000
S1723       S  0.14821033  0.94782862  0.27406660    -0.28000
H1724       H  0.11403475  0.91188000  0.32039033     0.08200
H1725       H  0.11244653  0.82033134  0.43585476     0.26700
H1726       H  0.14544566  0.99495138  0.42140597     0.21500
H1727       H  0.13623360  0.91697256  0.27346984     0.26800
H1728       H  0.05851050  0.96410030  0.36295540     0.15600
C1729       C  0.88576860  0.96102337  0.37305694    -0.11700
C1730       C  0.87580965  0.93119240  0.36437428     0.14900
C1731       C  0.85614318  0.92748668  0.33821424     0.01800
C1732       C  0.84680330  0.95399327  0.32159070    -0.16000
C1733       C  0.85528286  0.98487925  0.33075661    -0.10800
C1734       C  0.87755032  0.98756331  0.35612270     0.08500
C1735       C  0.88942399  0.90505211  0.38209433     0.09500
S1736       S  0.84231042  0.88981756  0.32453265    -0.25200
H1737       H  0.83234895  0.95036048  0.30111643     0.19800
S1738       S  0.90232393  0.02133798  0.36489155    -0.30900
H1739       H  0.90259348  0.96318084  0.39200205     0.10100
C1740       C  0.91292761  0.88626062  0.36908810     0.03300
C1741       C  0.92848638  0.86500821  0.38832909    -0.13200
C1742       C  0.92231335  0.86345079  0.42052118    -0.08800
C1743       C  0.89925782  0.88278702  0.43371222     0.06700
C1744       C  0.88285902  0.90302636  0.41421167    -0.13900
S1745       S  0.92484759  0.89082583  0.32870465    -0.30900
H1746       H  0.94627581  0.85012947  0.37850174     0.11000
S1747       S  0.88936931  0.88347918  0.47484606    -0.28000
H1748       H  0.86548740  0.91823433  0.42432281     0.08200
H1749       H  0.90534783  0.01542038  0.39716938     0.26700
H1750       H  0.95038247  0.87039671  0.32982317     0.21500
H1751       H  0.90320178  0.85549886  0.48425213     0.26800
H1752       H  0.84623715  0.87351390  0.35283286     0.15600
C1753       C  0.88993307  0.87541463  0.62032983    -0.11700
C1754       C  0.88108112  0.90373430  0.60678011     0.14900
C1755       C  0.89113326  0.91128682  0.57611809     0.01800
C1756       C  0.90992208  0.89038277  0.55975461    -0.16000
C1757       C  0.91901933  0.86201169  0.57335854    -0.10800
C1758       C  0.90939392  0.85493926  0.60441940     0.08500
C1759       C  0.86917457  0.92786621  0.62795926     0.09500
S1760       S  0.88195626  0.94782868  0.55725082    -0.25200
H1761       H  0.91747141  0.89634410  0.53624977     0.19800
S1762       S  0.92373759  0.82203104  0.62645981    -0.30900
H1763       H  0.88365961  0.87040061  0.64445639     0.10100
C1764       C  0.83742310  0.93018871  0.63634836     0.03300
C1765       C  0.82828652  0.95397706  0.65686794    -0.13200
C1766       C  0.85045905  0.97549026  0.66985645    -0.08800
C1767       C  0.88300564  0.97116121  0.66207420     0.06700
C1768       C  0.89146211  0.94779881  0.64128914    -0.13900
S1769       S  0.80863185  0.90301128  0.62063917    -0.30900
H1770       H  0.80380110  0.95499489  0.66308163     0.11000
S1771       S  0.91465536  0.99651550  0.67588893    -0.28000
H1772       H  0.91592320  0.94487992  0.63507948     0.08200
H1773       H  0.95431564  0.82378700  0.61385169     0.26700
H1774       H  0.78279863  0.91368356  0.63788062     0.21500
H1775       H  0.93911492  0.98520045  0.65716855     0.26800
H1776       H  0.85437932  0.95340730  0.57431190     0.15600
C1777       C  0.10552430  0.88612618  0.60996612    -0.11700
C1778       C  0.08780286  0.91184416  0.61900990     0.14900
C1779       C  0.05627685  0.91383016  0.60891050     0.01800
C1780       C  0.04376994  0.89106292  0.58879154    -0.16000
C1781       C  0.06149233  0.86530512  0.57949068    -0.10800
C1782       C  0.09262622  0.86249099  0.59097631     0.08500
C1783       C  0.10391449  0.93815488  0.63539611     0.09500
S1784       S  0.03074590  0.94469885  0.62121376    -0.25200
H1785       H  0.01964481  0.89305193  0.58100168     0.19800
S1786       S  0.11685803  0.82972618  0.58088522    -0.30900
H1787       H  0.12981478  0.88499758  0.61735707     0.10100
C1788       C  0.11755742  0.93504725  0.66511819     0.03300
C1789       C  0.13307962  0.96084986  0.67873031    -0.13200
C1790       C  0.13337932  0.99099528  0.66468769    -0.08800
C1791       C  0.12135693  0.99287058  0.63304508     0.06700
C1792       C  0.10681814  0.96658252  0.61959469    -0.13900
S1793       S  0.11359998  0.89875766  0.68662961    -0.30900
H1794       H  0.14317171  0.95811056  0.70178618     0.11000
S1795       S  0.12683941  0.02541968  0.60593430    -0.28000
H1796       H  0.09806230  0.96781106  0.59583514     0.08200
H1797       H  0.14341325  0.83844711  0.59860593     0.26700
H1798       H  0.12444595  0.91032373  0.71549230     0.21500
H1799       H  0.10112996  0.01873178  0.58623783     0.26800
H1800       H  0.04546483  0.94993422  0.65022739     0.15600
C1801       C  0.18407575  0.81322855  0.49248184    -0.11700
C1802       C  0.20481488  0.78827434  0.49047753     0.14900
C1803       C  0.19289902  0.75724575  0.49215098     0.01800
C1804       C  0.16061506  0.75190783  0.49655503    -0.16000
C1805       C  0.13992226  0.77693220  0.49877378    -0.10800
C1806       C  0.15181888  0.80796203  0.49637292     0.08500
C1807       C  0.23891523  0.79545750  0.48965746     0.09500
S1808       S  0.21758299  0.72364675  0.48803679    -0.25200
H1809       H  0.15144577  0.72809580  0.49735127     0.19800
S1810       S  0.12729756  0.84196072  0.49701004    -0.30900
H1811       H  0.19319213  0.83705004  0.49134930     0.10100
C1812       C  0.25350444  0.80993745  0.46380222     0.03300
C1813       C  0.28581973  0.81688520  0.46478847    -0.13200
C1814       C  0.30427998  0.81119844  0.49183880    -0.08800
C1815       C  0.28882363  0.79552041  0.51746707     0.06700
C1816       C  0.25666576  0.78831517  0.51598381    -0.13900
S1817       S  0.23121555  0.81831544  0.42888979    -0.30900
H1818       H  0.29658467  0.82555158  0.44355995     0.11000
S1819       S  0.30824075  0.78632594  0.55372567    -0.28000
H1820       H  0.24488001  0.77754484  0.53588139     0.08200
H1821       H  0.10316478  0.82873530  0.51525568     0.26700
H1822       H  0.25512359  0.83509239  0.41296070     0.21500
H1823       H  0.28606500  0.76415493  0.56492293     0.26800
H1824       H  0.24021047  0.73830047  0.46862376     0.15600
C1825       C  0.36898357  0.66526183  0.49357984    -0.11700
C1826       C  0.38151364  0.68808001  0.47326764     0.14900
C1827       C  0.40428840  0.67962338  0.45089819     0.01800
C1828       C  0.41476498  0.64878920  0.45014114    -0.16000
C1829       C  0.40394909  0.62663633  0.47214066    -0.10800
C1830       C  0.37995299  0.63472333  0.49333107     0.08500
C1831       C  0.37188040  0.72074705  0.47785717     0.09500
S1832       S  0.42272729  0.70749737  0.42458037    -0.25200
H1833       H  0.43359053  0.64285694  0.43424481     0.19800
S1834       S  0.36344445  0.60762663  0.52169578    -0.30900
H1835       H  0.35128705  0.67162834  0.51055043     0.10100
C1836       C  0.35260928  0.73607277  0.45649512     0.03300
C1837       C  0.34409013  0.76684397  0.46234505    -0.13200
C1838       C  0.35334505  0.78334676  0.48980166    -0.08800
C1839       C  0.37193614  0.76648467  0.51221392     0.06700
C1840       C  0.38106007  0.73587668  0.50533332    -0.13900
S1841       S  0.33815394  0.71628762  0.42200414    -0.30900
H1842       H  0.33038845  0.77856922  0.44471957     0.11000
S1843       S  0.38339371  0.78008695  0.55069417    -0.28000
H1844       H  0.39497446  0.72295489  0.52202479     0.08200
H1845       H  0.37167812  0.58021075  0.50596069     0.26700
H1846       H  0.31706200  0.73943583  0.41247584     0.21500
H1847       H  0.40934522  0.76057939  0.55492098     0.26800
H1848       H  0.42325802  0.73240195  0.44586754     0.15600
C1849       C  0.19423721  0.25880743  0.47851094    -0.11700
C1850       C  0.20467962  0.23479586  0.49829232     0.14900
C1851       C  0.18320785  0.22055755  0.51941672     0.01800
C1852       C  0.15203072  0.23049695  0.52031897    -0.16000
C1853       C  0.14122881  0.25388702  0.49995503    -0.10800
C1854       C  0.16287597  0.26857439  0.47917910     0.08500
C1855       C  0.23821808  0.22559197  0.49698595     0.09500
S1856       S  0.19389963  0.18900003  0.54523347    -0.25200
H1857       H  0.13566755  0.21881403  0.53616974     0.19800
S1858       S  0.15224064  0.30044157  0.45371094    -0.30900
H1859       H  0.21072732  0.27015195  0.46257609     0.10100
C1860       C  0.24931061  0.20546020  0.47380194     0.03300
C1861       C  0.28119116  0.19741465  0.47332531    -0.13200
C1862       C  0.30322828  0.20920970  0.49547558    -0.08800
C1863       C  0.29088399  0.22844400  0.51987329     0.06700
C1864       C  0.25899641  0.23659453  0.51984191    -0.13900
S1865       S  0.22235740  0.18875852  0.44555515    -0.30900
H1866       H  0.28832959  0.18087130  0.45591822     0.11000
S1867       S  0.31518001  0.24450694  0.55083744    -0.28000
H1868       H  0.25004810  0.25189077  0.53775004     0.08200
H1869       H  0.12920297  0.31261294  0.47365332     0.26700
H1870       H  0.24498839  0.17396810  0.42705601     0.21500
H1871       H  0.29065611  0.25289819  0.57104875     0.26800
H1872       H  0.21572689  0.17545820  0.52491061     0.15600
C1873       C  0.42949139  0.32748214  0.45390979    -0.11700
C1874       C  0.42028830  0.31279779  0.48199800     0.14900
C1875       C  0.42642483  0.32780205  0.51068733     0.01800
C1876       C  0.43981309  0.35781444  0.51066256    -0.16000
C1877       C  0.44761685  0.37334700  0.48260642    -0.10800
C1878       C  0.44278366  0.35776971  0.45386769     0.08500
C1879       C  0.39989156  0.28448567  0.48088782     0.09500
S1880       S  0.41556979  0.31082899  0.54800410    -0.25200
H1881       H  0.44362194  0.36946368  0.53284384     0.19800
S1882       S  0.45016982  0.37623686  0.41648515    -0.30900
H1883       H  0.42435981  0.31613579  0.43184179     0.10100
C1884       C  0.36714507  0.28698465  0.48217289     0.03300
C1885       C  0.34832150  0.25994352  0.48475657    -0.13200
C1886       C  0.36115494  0.22968208  0.48822495    -0.08800
C1887       C  0.39471401  0.22769647  0.48436547     0.06700
C1888       C  0.41327443  0.25499976  0.48084357    -0.13900
S1889       S  0.34918788  0.32498358  0.48090844    -0.30900
H1890       H  0.32334331  0.26312952  0.48368477     0.11000
S1891       S  0.41575326  0.19133792  0.48573515    -0.28000
H1892       H  0.43864301  0.25349901  0.47966109     0.08200
H1893       H  0.43946857  0.40584476  0.42531885     0.26700
H1894       H  0.31834615  0.31477084  0.48791209     0.21500
H1895       H  0.44189353  0.20173086  0.46806340     0.26800
H1896       H  0.41962195  0.27951353  0.53938245     0.15600
C1897       C  0.68551096  0.32077556  0.98261293    -0.11700
C1898       C  0.70355999  0.29918251  0.99910965     0.14900
C1899       C  0.73030247  0.30995642  0.01582379     0.01800
C1900       C  0.73833657  0.34195471  0.01542219    -0.16000
C1901       C  0.72063955  0.36350443  0.99832525    -0.10800
C1902       C  0.69353834  0.35264394  0.98216851     0.08500
C1903       C  0.69603591  0.26545240  0.99497565     0.09500
S1904       S  0.75646312  0.28414276  0.03630792    -0.25200
H1905       H  0.75912320  0.34994949  0.02779147     0.19800
S1906       S  0.66781544  0.37795105  0.96066269    -0.30900
H1907       H  0.66516150  0.31259785  0.96955064     0.10100
C1908       C  0.67777437  0.24807355  0.01643426     0.03300
C1909       C  0.67296685  0.21578703  0.01177672    -0.13200
C1910       C  0.68752383  0.19952702  0.98682810    -0.08800
C1911       C  0.70125213  0.21903482  0.96269447     0.06700
C1912       C  0.70619523  0.25109011  0.96775243    -0.13900
S1913       S  0.66094416  0.26703319  0.05000816    -0.30900
H1914       H  0.65736881  0.20383754  0.02783181     0.11000
S1915       S  0.71477412  0.20446119  0.92560804    -0.28000
H1916       H  0.71873376  0.26516778  0.95049320     0.08200
H1917       H  0.67267345  0.40464146  0.97915555     0.26700
H1918       H  0.64948588  0.23971830  0.06493562     0.21500
H1919       H  0.71445269  0.23307413  0.90920278     0.26800
H1920       H  0.73531356  0.25900791  0.04085714     0.15600
C1921       C  0.82669779  0.10193480  0.95414319    -0.11700
C1922       C  0.81784245  0.11770866  0.98147727     0.14900
C1923       C  0.83883689  0.11939159  0.00686012     0.01800
C1924       C  0.86787158  0.10512472  0.00452336    -0.16000
C1925       C  0.87636535  0.08786279  0.97795053    -0.10800
C1926       C  0.85553666  0.08658015  0.95226574     0.08500
C1927       C  0.78556247  0.12952776  0.98409228     0.09500
S1928       S  0.82955901  0.13778670  0.04361496    -0.25200
H1929       H  0.88324110  0.10593899  0.02468077     0.19800
S1930       S  0.86296911  0.06363306  0.91789481    -0.30900
H1931       H  0.81033031  0.10026034  0.93478401     0.10100
C1932       C  0.77921684  0.16149114  0.98428802     0.03300
C1933       C  0.74822444  0.17117608  0.98825170    -0.13200
C1934       C  0.72209162  0.14985001  0.98792807    -0.08800
C1935       C  0.72969510  0.11733390  0.99085435     0.06700
C1936       C  0.76106759  0.10797010  0.98880818    -0.13900
S1937       S  0.81054535  0.19016420  0.97906146    -0.30900
H1938       H  0.74531328  0.19583637  0.99124193     0.11000
S1939       S  0.70095509  0.08617722  0.99557105    -0.28000
H1940       H  0.76669994  0.08341830  0.99057126     0.08200
H1941       H  0.87456541  0.03769848  0.93432901     0.26700
H1942       H  0.79119251  0.21602368  0.97386497     0.21500
H1943       H  0.71909310  0.06190302  0.98334879     0.26800
H1944       H  0.79706097  0.13136508  0.04318903     0.15600
C1945       C  0.24815381  0.30864293  0.97565758    -0.11700
C1946       C  0.26984369  0.29762498  0.99785631     0.14900
C1947       C  0.28126579  0.31869467  0.02070798     0.01800
C1948       C  0.27192839  0.34998307  0.02015974    -0.16000
C1949       C  0.25032338  0.36121471  0.99807948    -0.10800
C1950       C  0.23795797  0.33986687  0.97580559     0.08500
C1951       C  0.28006050  0.26420684  0.99688081     0.09500
S1952       S  0.30763958  0.30710822  0.05149791    -0.25200
H1953       H  0.28212818  0.36594087  0.03699593     0.19800
S1954       S  0.20848646  0.35063423  0.94766124    -0.30900
H1955       H  0.23882534  0.29266158  0.95825199     0.10100
C1956       C  0.25921472  0.23945397  0.00413775     0.03300
C1957       C  0.26984584  0.20855296  0.00412077    -0.13200
C1958       C  0.30099076  0.20021350  0.99524487    -0.08800
C1959       C  0.32253052  0.22612764  0.99126600     0.06700
C1960       C  0.31159744  0.25721566  0.99101614    -0.13900
S1961       S  0.21922568  0.24715604  0.01572345    -0.30900
H1962       H  0.25329381  0.19108306  0.01253038     0.11000
S1963       S  0.36442375  0.22111860  0.98851550    -0.28000
H1964       H  0.32793640  0.27654378  0.98711907     0.08200
H1965       H  0.19326628  0.37187262  0.96733966     0.26700
H1966       H  0.20762496  0.21629194  0.01266546     0.21500
H1967       H  0.37293149  0.25217616  0.98093724     0.26800
H1968       H  0.29504184  0.27666298  0.05509057     0.15600
C1969       C  0.24161955  0.10274590  0.01236432    -0.11700
C1970       C  0.22124004  0.10930020  0.98773873     0.14900
C1971       C  0.22893135  0.13388712  0.96710126     0.01800
C1972       C  0.25805933  0.14910604  0.96983130    -0.16000
C1973       C  0.27904601  0.14367556  0.99515669    -0.10800
C1974       C  0.26945625  0.11992696  0.01742795     0.08500
C1975       C  0.19115428  0.09136647  0.98640131     0.09500
S1976       S  0.20205167  0.14849724  0.93808119    -0.25200
H1977       H  0.26386742  0.16702093  0.95263672     0.19800
S1978       S  0.29225347  0.10596692  0.05008010    -0.30900
H1979       H  0.23546239  0.08349054  0.02790993     0.10100
C1980       C  0.18155093  0.07351426  0.96023882     0.03300
C1981       C  0.15194346  0.05825038  0.96070213    -0.13200
C1982       C  0.13279983  0.05924216  0.98745748    -0.08800
C1983       C  0.14436035  0.07418686  0.01472671     0.06700
C1984       C  0.17260087  0.09099694  0.01340841    -0.13900
S1985       S  0.20730159  0.06911853  0.92699103    -0.30900
H1986       H  0.14355845  0.04590200  0.94021237     0.11000
S1987       S  0.12422931  0.07115492  0.05201664    -0.28000
H1988       H  0.18050653  0.10387375  0.03377906     0.08200
H1989       H  0.26744522  0.09250594  0.06763660     0.26700
H1990       H  0.18726064  0.04918400  0.90974738     0.21500
H1991       H  0.14906529  0.08252575  0.07071699     0.26800
H1992       H  0.17438086  0.14078560  0.95464391     0.15600
C1993       C  0.72734397  0.78848372  0.47273418    -0.11700
C1994       C  0.74749608  0.80133903  0.49515250     0.14900
C1995       C  0.73576247  0.82420254  0.51544265     0.01800
C1996       C  0.70376641  0.83164806  0.51451346    -0.16000
C1997       C  0.68196382  0.81659566  0.49402505    -0.10800
C1998       C  0.69542774  0.79617724  0.47125109     0.08500
C1999       C  0.78099998  0.79171472  0.49505132     0.09500
S2000       S  0.76042955  0.84551209  0.54266156    -0.25200
H2001       H  0.69667249  0.85022419  0.52976773     0.19800
S2002       S  0.67324239  0.77916566  0.43950435    -0.30900
H2003       H  0.73694167  0.77236021  0.45592605     0.10100
C2004       C  0.79428901  0.77427552  0.51964502     0.03300
C2005       C  0.82628734  0.76634953  0.51832064    -0.13200
C2006       C  0.84543953  0.77504362  0.49262954    -0.08800
C2007       C  0.83143497  0.79198715  0.46770177     0.06700
C2008       C  0.79965524  0.79975888  0.46915840    -0.13900
S2009       S  0.77023843  0.76122831  0.55219193    -0.30900
H2010       H  0.83638258  0.75311323  0.53735335     0.11000
S2011       S  0.85271494  0.80628887  0.43400765    -0.28000
H2012       H  0.78946641  0.81302290  0.45013794     0.08200
H2013       H  0.69267494  0.75342071  0.43434837     0.26700
H2014       H  0.79456065  0.74786755  0.56973918     0.21500
H2015       H  0.87726138  0.81848441  0.45224057     0.26800
H2016       H  0.78874000  0.84287986  0.52601271     0.15600
C2017       C  0.57587644  0.76607311  0.51802710    -0.11700
C2018       C  0.59075997  0.73733087  0.51813099     0.14900
C2019       C  0.62348740  0.73651615  0.51398653     0.01800
C2020       C  0.64044374  0.76439664  0.50938890    -0.16000
C2021       C  0.62552675  0.79352596  0.50476742    -0.10800
C2022       C  0.59244258  0.79404370  0.51175204     0.08500
C2023       C  0.57109318  0.70860616  0.52031992     0.09500
S2024       S  0.64507779  0.70056172  0.51273118    -0.25200
H2025       H  0.66555626  0.76221288  0.50858025     0.19800
S2026       S  0.56906575  0.82885632  0.50980728    -0.30900
H2027       H  0.55064399  0.76634510  0.52143993     0.10100
C2028       C  0.57272914  0.68791065  0.54605040     0.03300
C2029       C  0.55621293  0.65924108  0.54489983    -0.13200
C2030       C  0.53758627  0.65161243  0.51891580    -0.08800
C2031       C  0.53373508  0.67355471  0.49463078     0.06700
C2032       C  0.55090659  0.70161827  0.49529975    -0.13900
S2033       S  0.59599211  0.69787291  0.58000192    -0.30900
H2034       H  0.55868662  0.64227583  0.56359486     0.11000
S2035       S  0.50785908  0.66651733  0.46189025    -0.28000
H2036       H  0.54902664  0.71788580  0.47588145     0.08200
H2037       H  0.54374411  0.81770126  0.52818234     0.26700
H2038       H  0.59120196  0.66939361  0.59608121     0.21500
H2039       H  0.48616442  0.64736018  0.47826919     0.26800
H2040       H  0.62132619  0.68262255  0.49814170     0.15600
C2041       C  0.70844866  0.70175130  0.96022993    -0.11700
C2042       C  0.71104339  0.71962296  0.98749341     0.14900
C2043       C  0.72331792  0.70549274  0.01469610     0.01800
C2044       C  0.73287556  0.67420687  0.01401951    -0.16000
C2045       C  0.73005062  0.65581322  0.98684601    -0.10800
C2046       C  0.71774466  0.67027749  0.95940549     0.08500
C2047       C  0.70227110  0.75335182  0.98650645     0.09500
S2048       S  0.72699593  0.72613164  0.05121531    -0.25200
H2049       H  0.74210907  0.66401382  0.03528538     0.19800
S2050       S  0.71200404  0.64927415  0.92320436    -0.30900
H2051       H  0.69892493  0.71261566  0.93944567     0.10100
C2052       C  0.72525335  0.77716882  0.98485917     0.03300
C2053       C  0.71634379  0.80861542  0.98542445    -0.13200
C2054       C  0.68466753  0.81804329  0.99015827    -0.08800
C2055       C  0.66150215  0.79337072  0.98777140     0.06700
C2056       C  0.67061894  0.76173543  0.98652896    -0.13900
S2057       S  0.76626908  0.76755748  0.98100916    -0.30900
H2058       H  0.73493917  0.82558475  0.98149394     0.11000
S2059       S  0.62001188  0.80056947  0.98625201    -0.28000
H2060       H  0.65290994  0.74324053  0.98584140     0.08200
H2061       H  0.70901162  0.67561923  0.90366155     0.26700
H2062       H  0.77855266  0.79762915  0.98734532     0.21500
H2063       H  0.60980189  0.77087557  0.99684227     0.26800
H2064       H  0.70040753  0.74470790  0.04701305     0.15600
C2065       C  0.74926092  0.91316188  0.98324706    -0.11700
C2066       C  0.76809976  0.90419825  0.00838383     0.14900
C2067       C  0.75632334  0.88188353  0.02974513     0.01800
C2068       C  0.72799333  0.86642194  0.02337692    -0.16000
C2069       C  0.70883866  0.87371280  0.99717365    -0.10800
C2070       C  0.71900039  0.90024572  0.97862006     0.08500
C2071       C  0.79953121  0.91925544  0.01198135     0.09500
S2072       S  0.77560033  0.87274099  0.06620181    -0.25200
H2073       H  0.72033542  0.84860363  0.03977308     0.19800
S2074       S  0.69350118  0.92334069  0.95407589    -0.30900
H2075       H  0.75788998  0.93181641  0.96813524     0.10100
C2076       C  0.82716626  0.90159468  0.01118181     0.03300
C2077       C  0.85631317  0.91692661  0.01396756    -0.13200
C2078       C  0.85879651  0.94976157  0.01549193    -0.08800
C2079       C  0.83111373  0.96747588  0.01519360     0.06700
C2080       C  0.80183013  0.95200171  0.01436127    -0.13900
S2081       S  0.82569617  0.85989067  0.00411405    -0.30900
H2082       H  0.87750793  0.90327674  0.01365961     0.11000
S2083       S  0.83153501  0.00959543  0.01288630    -0.28000
H2084       H  0.78062693  0.96567096  0.01421013     0.08200
H2085       H  0.71605704  0.94439603  0.94161505     0.26700
H2086       H  0.85834326  0.85521218  0.00373357     0.21500
H2087       H  0.85592991  0.01152346  0.99065285     0.26800
H2088       H  0.79036719  0.90215401  0.07002766     0.15600
C2089       C  0.29427631  0.69946212  0.98887230    -0.11700
C2090       C  0.27690453  0.71966029  0.00753912     0.14900
C2091       C  0.25248914  0.70718033  0.02668014     0.01800
C2092       C  0.24599836  0.67482561  0.02635862    -0.16000
C2093       C  0.26298466  0.65469825  0.00700782    -0.10800
C2094       C  0.28800413  0.66728037  0.98879687     0.08500
C2095       C  0.28489891  0.75352257  0.00580513     0.09500
S2096       S  0.22858585  0.73093874  0.05180474    -0.25200
H2097       H  0.22707322  0.66538333  0.04076384     0.19800
S2098       S  0.31397996  0.64339647  0.96622918    -0.30900
H2099       H  0.31332983  0.70885456  0.97459050     0.10100
C2100       C  0.30291204  0.76854784  0.02882948     0.03300
C2101       C  0.30972364  0.80065241  0.02603007    -0.13200
C2102       C  0.29987212  0.81895602  0.99995263    -0.08800
C2103       C  0.28143384  0.80274521  0.97675910     0.06700
C2104       C  0.27480114  0.77058153  0.97994761    -0.13900
S2105       S  0.31664551  0.74694424  0.06243369    -0.30900
H2106       H  0.32147968  0.81125322  0.04565640     0.11000
S2107       S  0.26429701  0.82212230  0.94333497    -0.28000
H2108       H  0.26084821  0.75848786  0.96246659     0.08200
H2109       H  0.31527204  0.61924580  0.98861481     0.26700
H2110       H  0.33768508  0.77010007  0.07353233     0.21500
H2111       H  0.25257702  0.79552022  0.92770563     0.26800
H2112       H  0.23473441  0.76002168  0.03747249     0.15600
C2113       C  0.14883510  0.88153922  0.00698537    -0.11700
C2114       C  0.17389304  0.89610457  0.02266044     0.14900
C2115       C  0.16853617  0.92322144  0.04038004     0.01800
C2116       C  0.13848406  0.93598434  0.04076006    -0.16000
C2117       C  0.11367224  0.92242146  0.02368460    -0.10800
C2118       C  0.11895355  0.89455766  0.00678017     0.08500
C2119       C  0.20588332  0.88507448  0.01623358     0.09500
S2120       S  0.19958396  0.94424922  0.06045150    -0.25200
H2121       H  0.13502197  0.95790704  0.05265571     0.19800
S2122       S  0.08968411  0.87453029  0.98331089    -0.30900
H2123       H  0.15309310  0.86080605  0.99322931     0.10100
C2124       C  0.22033681  0.86302413  0.03534104     0.03300
C2125       C  0.25110418  0.85436296  0.02868812    -0.13200
C2126       C  0.26861934  0.86697231  0.00297230    -0.08800
C2127       C  0.25169917  0.88663542  0.98158744     0.06700
C2128       C  0.22126665  0.89607953  0.98941657    -0.13900
S2129       S  0.19994719  0.84670459  0.06890088    -0.30900
H2130       H  0.26230699  0.83847744  0.04476039     0.11000
S2131       S  0.26583118  0.89997470  0.94370288    -0.28000
H2132       H  0.20898921  0.91219517  0.97431141     0.08200
H2133       H  0.06722157  0.89796047  0.98134835     0.26700
H2134       H  0.22276015  0.82468423  0.07701588     0.21500
H2135       H  0.23644455  0.90640403  0.93028339     0.26800
H2136       H  0.21833553  0.91831306  0.06682045     0.15600
C2137       C  0.30385431  0.04053661  0.28560107    -0.11700
C2138       C  0.28724951  0.01210512  0.28286030     0.14900
C2139       C  0.30225743  0.98641936  0.26922380     0.01800
C2140       C  0.33343789  0.98950813  0.25903975    -0.16000
C2141       C  0.35080079  0.01768299  0.26238716    -0.10800
C2142       C  0.33518483  0.04390333  0.27524275     0.08500
C2143       C  0.25293960  0.01141195  0.28939620     0.09500
S2144       S  0.28271862  0.94902237  0.26395924    -0.25200
H2145       H  0.34436242  0.96928388  0.24881216     0.19800
S2146       S  0.35389739  0.08210968  0.27822088    -0.30900
H2147       H  0.29175733  0.06040466  0.29515197     0.10100
C2148       C  0.24030376  0.00947504  0.31970010     0.03300
C2149       C  0.20743596  0.01002858  0.32382816    -0.13200
C2150       C  0.18638410  0.01429240  0.29845661    -0.08800
C2151       C  0.19995781  0.01139680  0.26758042     0.06700
C2152       C  0.23266611  0.01179408  0.26394870    -0.13900
S2153       S  0.26606236  0.00714301  0.35312489    -0.30900
H2154       H  0.19827272  0.00953663  0.34739526     0.11000
S2155       S  0.17870819  0.00397069  0.23151104    -0.28000
H2156       H  0.24280285  0.01182228  0.24067258     0.08200
H2157       H  0.32759374  0.09852194  0.28874956     0.26700
H2158       H  0.24233090  0.00508981  0.37602756     0.21500
H2159       H  0.20263251  0.98804729  0.21574886     0.26800
H2160       H  0.26266149  0.95124539  0.28998206     0.15600
C2161       C  0.76216449  0.03637329  0.27683933    -0.11700
C2162       C  0.74203405  0.01363143  0.28975635     0.14900
C2163       C  0.75431727  0.99113918  0.31025305     0.01800
C2164       C  0.78649657  0.99161278  0.31703831    -0.16000
C2165       C  0.80781850  0.01347991  0.30301830    -0.10800
C2166       C  0.79452753  0.03679451  0.28297279     0.08500
C2167       C  0.70856387  0.01355666  0.28021663     0.09500
S2168       S  0.73020895  0.96101033  0.32849973    -0.25200
H2169       H  0.79424680  0.97486127  0.33413781     0.19800
S2170       S  0.81822579  0.06543414  0.26180492    -0.30900
H2171       H  0.75239123  0.05328389  0.26079774     0.10100
C2172       C  0.68874547  0.03821458  0.28843077     0.03300
C2173       C  0.65758428  0.03795435  0.27788057    -0.13200
C2174       C  0.64558878  0.01358779  0.25906148    -0.08800
C2175       C  0.66589954  0.98925566  0.25029802     0.06700
C2176       C  0.69695468  0.98938247  0.26118179    -0.13900
S2177       S  0.70263654  0.06931966  0.31362908    -0.30900
H2178       H  0.64217779  0.05638100  0.28530621     0.11000
S2179       S  0.65428218  0.95808415  0.22439998    -0.28000
H2180       H  0.71244814  0.97079815  0.25425341     0.08200
H2181       H  0.79366295  0.08335582  0.24960116     0.26700
H2182       H  0.67674744  0.08892530  0.30951735     0.21500
H2183       H  0.63538736  0.97686151  0.20522596     0.26800
H2184       H  0.70239737  0.97821804  0.32953006     0.15600
C2185       C  0.37637451  0.91312014  0.36968344    -0.11700
C2186       C  0.39113639  0.90666455  0.39813122     0.14900
C2187       C  0.42089442  0.92035374  0.40453834     0.01800
C2188       C  0.43602298  0.93860084  0.38160954    -0.16000
C2189       C  0.42189896  0.94411390  0.35244930    -0.10800
C2190       C  0.39099642  0.93220975  0.34717584     0.08500
C2191       C  0.37653150  0.88320493  0.41935750     0.09500
S2192       S  0.44112528  0.91466746  0.44117705    -0.25200
H2193       H  0.45936163  0.94790094  0.38637046     0.19800
S2194       S  0.36834680  0.94116329  0.31286826    -0.30900
H2195       H  0.35334538  0.90298117  0.36489330     0.10100
C2196       C  0.34898319  0.88900235  0.43612996     0.03300
C2197       C  0.33773169  0.86659858  0.45756501    -0.13200
C2198       C  0.35266493  0.83756408  0.46268661    -0.08800
C2199       C  0.38136382  0.83267450  0.44547622     0.06700
C2200       C  0.39173537  0.85496474  0.42355298    -0.13900
S2201       S  0.32899067  0.92565340  0.43148861    -0.30900
H2202       H  0.31728371  0.87219868  0.47116846     0.11000
S2203       S  0.40846358  0.80100135  0.45155910    -0.28000
H2204       H  0.41298981  0.85094779  0.41026267     0.08200
H2205       H  0.37833964  0.97270083  0.31206275     0.26700
H2206       H  0.30435908  0.91921247  0.45267454     0.21500
H2207       H  0.43618302  0.81835512  0.44507132     0.26800
H2208       H  0.41392894  0.91083298  0.45964722     0.15600
C2209       C  0.57960687  0.91440313  0.39971789    -0.11700
C2210       C  0.60549863  0.89781191  0.38875156     0.14900
C2211       C  0.61575231  0.90241389  0.35770805     0.01800
C2212       C  0.59966377  0.92320583  0.33833765    -0.16000
C2213       C  0.57290147  0.93922628  0.34883562    -0.10800
C2214       C  0.56345994  0.93516418  0.38041959     0.08500
C2215       C  0.61989975  0.87502232  0.41031663     0.09500
S2216       S  0.64853028  0.88202806  0.34103499    -0.25200
H2217       H  0.60779299  0.92620996  0.31445896     0.19800
S2218       S  0.53024235  0.95429335  0.39738674    -0.30900
H2219       H  0.57167387  0.91087274  0.42360283     0.10100
C2220       C  0.64825912  0.88129719  0.42595255     0.03300
C2221       C  0.65658018  0.86242353  0.45151839    -0.13200
C2222       C  0.63704336  0.83716393  0.46230690    -0.08800
C2223       C  0.61175171  0.82768708  0.44168391     0.06700
C2224       C  0.60290424  0.84774549  0.41741264    -0.13900
S2225       S  0.67164278  0.91564452  0.41618801    -0.30900
H2226       H  0.67679194  0.86958574  0.46520959     0.11000
S2227       S  0.58896359  0.79145550  0.44161555    -0.28000
H2228       H  0.58211721  0.84213507  0.40371680     0.08200
H2229       H  0.54386141  0.98430774  0.39344473     0.26700
H2230       H  0.69659379  0.90973458  0.43682971     0.21500
H2231       H  0.61245440  0.77091982  0.45043664     0.26800
H2232       H  0.64695693  0.85560283  0.36066833     0.15600
C2233       C  0.36006591  0.16978460  0.41037848    -0.11700
C2234       C  0.37389452  0.14118029  0.41728773     0.14900
C2235       C  0.37191397  0.12922540  0.44777426     0.01800
C2236       C  0.35877859  0.14718500  0.47132286    -0.16000
C2237       C  0.34655297  0.17751047  0.46585638    -0.10800
C2238       C  0.34596498  0.18779342  0.43383615     0.08500
C2239       C  0.39204031  0.12494679  0.39295697     0.09500
S2240       S  0.38834904  0.09213612  0.45889558    -0.25200
H2241       H  0.36123768  0.13745498  0.49431082     0.19800
S2242       S  0.32914825  0.22449038  0.42177848    -0.30900
H2243       H  0.36133091  0.17854989  0.38658504     0.10100
C2244       C  0.37721857  0.10408548  0.37209273     0.03300
C2245       C  0.39556231  0.08724883  0.35105988    -0.13200
C2246       C  0.42834725  0.09116105  0.35017881    -0.08800
C2247       C  0.44327954  0.11195844  0.37112989     0.06700
C2248       C  0.42492199  0.12870796  0.39238965    -0.13900
S2249       S  0.33508296  0.09814012  0.37310876    -0.30900
H2250       H  0.38447495  0.07052630  0.33553190     0.11000
S2251       S  0.48545050  0.11769497  0.37028465    -0.28000
H2252       H  0.43607868  0.14463223  0.40876938     0.08200
H2253       H  0.32517326  0.21677700  0.39005119     0.26700
H2254       H  0.33363148  0.07401869  0.35088223     0.21500
H2255       H  0.48742067  0.13711947  0.39667803     0.26800
H2256       H  0.38205897  0.07680934  0.43054974     0.15600
C2257       C  0.47172833  0.27481507  0.21806823    -0.11700
C2258       C  0.50071766  0.26057612  0.21361378     0.14900
C2259       C  0.52526667  0.27826055  0.19949221     0.01800
C2260       C  0.51997978  0.30894492  0.18968669    -0.16000
C2261       C  0.49189956  0.32486616  0.19683377    -0.10800
C2262       C  0.46722694  0.30654470  0.21130924     0.08500
C2263       C  0.50348662  0.22666436  0.22153788     0.09500
S2264       S  0.56452533  0.26379456  0.19420217    -0.25200
H2265       H  0.53901962  0.32036922  0.17725728     0.19800
S2266       S  0.42971647  0.32255280  0.22250209    -0.30900
H2267       H  0.45235846  0.26080548  0.22723820     0.10100
C2268       C  0.49337306  0.21400855  0.25063992     0.03300
C2269       C  0.49312229  0.18144980  0.25527088    -0.13200
C2270       C  0.50511917  0.16137844  0.23255882    -0.08800
C2271       C  0.51772762  0.17434730  0.20458081     0.06700
C2272       C  0.51520577  0.20636296  0.19885427    -0.13900
S2273       S  0.48215327  0.23905723  0.28255407    -0.30900
H2274       H  0.48432706  0.17155765  0.27702542     0.11000
S2275       S  0.53816050  0.15244569  0.17515945    -0.28000
H2276       H  0.52269443  0.21555075  0.17633549     0.08200
H2277       H  0.41736823  0.29630483  0.23857343     0.26700
H2278       H  0.47854005  0.21540334  0.30534346     0.21500
H2279       H  0.52699560  0.12258547  0.18303377     0.26800
H2280       H  0.56414351  0.24478725  0.22115471     0.15600
C2281       C  0.52579147  0.75475646  0.21041234    -0.11700
C2282       C  0.49751586  0.77057664  0.20799433     0.14900
C2283       C  0.47093510  0.75437848  0.19657379     0.01800
C2284       C  0.47300236  0.72276289  0.18838170    -0.16000
C2285       C  0.50143830  0.70580675  0.19045238    -0.10800
C2286       C  0.52827349  0.72303592  0.20215381     0.08500
C2287       C  0.49673792  0.80426306  0.21670432     0.09500
S2288       S  0.43330429  0.77269961  0.19228830    -0.25200
H2289       H  0.45123951  0.71138736  0.18158753     0.19800
S2290       S  0.56623241  0.70585632  0.20807863    -0.30900
H2291       H  0.54606153  0.76751215  0.21933214     0.10100
C2292       C  0.49361235  0.81398707  0.24807655     0.03300
C2293       C  0.49240628  0.84616800  0.25500873    -0.13200
C2294       C  0.49456608  0.86883771  0.23118553    -0.08800
C2295       C  0.49809827  0.85887664  0.19984093     0.06700
C2296       C  0.49918474  0.82690320  0.19301013    -0.13900
S2297       S  0.49100598  0.78533769  0.27918068    -0.30900
H2298       H  0.49014635  0.85374901  0.27901701     0.11000
S2299       S  0.50176427  0.88575503  0.16742122    -0.28000
H2300       H  0.50181390  0.81955779  0.16893354     0.08200
H2301       H  0.58377158  0.73345788  0.21362202     0.26700
H2302       H  0.48773517  0.80670865  0.30382701     0.21500
H2303       H  0.48015603  0.90704023  0.17917697     0.26800
H2304       H  0.43642924  0.79280243  0.21803865     0.15600
C2305       C  0.62586030  0.11715832  0.03977952    -0.11700
C2306       C  0.63568961  0.12679160  0.06928962     0.14900
C2307       C  0.66346321  0.14505744  0.07169628     0.01800
C2308       C  0.68005567  0.15379742  0.04445151    -0.16000
C2309       C  0.66863506  0.14713535  0.01391536    -0.10800
C2310       C  0.64154589  0.12621594  0.01236755     0.08500
C2311       C  0.61727252  0.11446272  0.09651782     0.09500
S2312       S  0.67823290  0.15917958  0.10860941    -0.25200
H2313       H  0.70130050  0.16791240  0.04703349     0.19800
S2314       S  0.62859117  0.10397189  0.97861116    -0.30900
H2315       H  0.60606503  0.10088740  0.03837118     0.10100
C2316       C  0.58452093  0.11911765  0.09846107     0.03300
C2317       C  0.56645200  0.10175994  0.12006416    -0.13200
C2318       C  0.58044764  0.08109964  0.14113483    -0.08800
C2319       C  0.61344451  0.07752780  0.14030118     0.06700
C2320       C  0.63141020  0.09392391  0.11781306    -0.13900
S2321       S  0.56578381  0.14784426  0.07391336    -0.30900
H2322       H  0.54135936  0.10491203  0.12120991     0.11000
S2323       S  0.63381427  0.05150278  0.16639928    -0.28000
H2324       H  0.65641218  0.08979598  0.11619295     0.08200
H2325       H  0.59640841  0.10317701  0.98635605     0.26700
H2326       H  0.53509575  0.14324090  0.08549812     0.21500
H2327       H  0.60903444  0.02949580  0.16964449     0.26800
H2328       H  0.64885033  0.16013906  0.12364570     0.15600
C2329       C  0.60808212  0.89831619  0.12979097    -0.11700
C2330       C  0.60082969  0.90229352  0.09821942     0.14900
C2331       C  0.57469659  0.92047042  0.08986395     0.01800
C2332       C  0.55888552  0.93726673  0.11295338    -0.16000
C2333       C  0.56740134  0.93508181  0.14465004    -0.10800
C2334       C  0.59105947  0.91332835  0.15306917     0.08500
C2335       C  0.62237000  0.88927745  0.07447722     0.09500
S2336       S  0.56108455  0.92214328  0.04991313    -0.25200
H2337       H  0.53978647  0.95219685  0.10613690     0.19800
S2338       S  0.60047353  0.90214259  0.19262212    -0.30900
H2339       H  0.62735769  0.88341676  0.13638684     0.10100
C2340       C  0.63917080  0.90926084  0.05422393     0.03300
C2341       C  0.65678828  0.89648075  0.03020627    -0.13200
C2342       C  0.66035430  0.86365145  0.02622157    -0.08800
C2343       C  0.64840455  0.84416249  0.05109500     0.06700
C2344       C  0.62825934  0.85707934  0.07363797    -0.13900
S2345       S  0.63822013  0.95131459  0.05841887    -0.30900
H2346       H  0.66646114  0.91261699  0.01316366     0.11000
S2347       S  0.65819774  0.80394989  0.05825970    -0.28000
H2348       H  0.61753323  0.84193895  0.09120648     0.08200
H2349       H  0.56904240  0.89462696  0.20025853     0.26700
H2350       H  0.66462436  0.95813123  0.03955154     0.21500
H2351       H  0.69021515  0.80735188  0.05119577     0.26800
H2352       H  0.53807127  0.94490407  0.05432760     0.15600
C2353       C  0.37397298  0.87284959  0.05764464    -0.11700
C2354       C  0.36040974  0.89255311  0.07964071     0.14900
C2355       C  0.32807383  0.89826870  0.07798237     0.01800
C2356       C  0.31038807  0.88600390  0.05336444    -0.16000
C2357       C  0.32354067  0.86676256  0.02987442    -0.10800
C2358       C  0.35620813  0.85960797  0.03320414     0.08500
C2359       C  0.38088191  0.90949163  0.10212581     0.09500
S2360       S  0.30803605  0.92236618  0.10596002    -0.25200
H2361       H  0.28652426  0.89382406  0.05223374     0.19800
S2362       S  0.37637847  0.83395549  0.00659749    -0.30900
H2363       H  0.39896113  0.86868314  0.05911202     0.10100
C2364       C  0.39615681  0.89398840  0.12681012     0.03300
C2365       C  0.41379017  0.91153441  0.14840123    -0.13200
C2366       C  0.41680266  0.94421220  0.14560210    -0.08800
C2367       C  0.40128646  0.95966804  0.12094539     0.06700
C2368       C  0.38399849  0.94211933  0.09923475    -0.13900
S2369       S  0.39224474  0.85211418  0.13165679    -0.30900
H2370       H  0.42518437  0.89975851  0.16765279     0.11000
S2371       S  0.40087699  0.00168524  0.11704059    -0.28000
H2372       H  0.37201496  0.95407427  0.08040372     0.08200
H2373       H  0.40335469  0.82944352  0.02496352     0.26700
H2374       H  0.41545502  0.84911162  0.15487591     0.21500
H2375       H  0.40112630  0.00781548  0.14934119     0.26800
H2376       H  0.32721437  0.91477504  0.13157520     0.15600
C2377       C  0.37832211  0.13327660  0.04658651    -0.11700
C2378       C  0.36633779  0.13818436  0.07647329     0.14900
C2379       C  0.34036223  0.15809166  0.07961491     0.01800
C2380       C  0.32395754  0.16764863  0.05262342    -0.16000
C2381       C  0.33351979  0.15875111  0.02214913    -0.10800
C2382       C  0.36450619  0.14610100  0.02003951     0.08500
C2383       C  0.38357243  0.12347951  0.10296752     0.09500
S2384       S  0.32650037  0.17137113  0.11701063    -0.25200
H2385       H  0.30236190  0.18028866  0.05566496     0.19800
S2386       S  0.39057529  0.15000047  0.98672864    -0.30900
H2387       H  0.39977169  0.12022722  0.04404906     0.10100
C2388       C  0.36972037  0.10060291  0.12294281     0.03300
C2389       C  0.38869509  0.08431267  0.14420472    -0.13200
C2390       C  0.42138006  0.08927618  0.14503801    -0.08800
C2391       C  0.43508113  0.11221969  0.12525271     0.06700
C2392       C  0.41615060  0.12916530  0.10486476    -0.13900
S2393       S  0.32858157  0.09011540  0.12009310    -0.30900
H2394       H  0.37824271  0.06677221  0.15955478     0.11000
S2395       S  0.47650189  0.12107856  0.12468704    -0.28000
H2396       H  0.42711997  0.14647794  0.08955611     0.08200
H2397       H  0.41921878  0.14740157  0.00291054     0.26700
H2398       H  0.32718394  0.07050766  0.14660414     0.21500
H2399       H  0.48108098  0.11455585  0.15646249     0.26800
H2400       H  0.35540560  0.16870900  0.13261916     0.15600
C2401       C  0.79329337  0.25607065  0.48232193    -0.11700
C2402       C  0.78105237  0.23461052  0.50435966     0.14900
C2403       C  0.80177128  0.22020934  0.52558908     0.01800
C2404       C  0.83399449  0.22730662  0.52413229    -0.16000
C2405       C  0.84628460  0.24901424  0.50232171    -0.10800
C2406       C  0.82544052  0.26380913  0.48137930     0.08500
C2407       C  0.74669305  0.22754196  0.50423722     0.09500
S2408       S  0.78862268  0.19286241  0.55529465    -0.25200
H2409       H  0.84966800  0.21565828  0.54021300     0.19800
S2410       S  0.83798219  0.29359936  0.45380474    -0.30900
H2411       H  0.77752240  0.26725587  0.46599828     0.10100
C2412       C  0.72475224  0.25038104  0.51172758     0.03300
C2413       C  0.69254556  0.24322238  0.50975124    -0.13200
C2414       C  0.68066982  0.21390060  0.49875103    -0.08800
C2415       C  0.70359750  0.19002773  0.49484381     0.06700
C2416       C  0.73590741  0.19748715  0.49668873    -0.13900
S2417       S  0.73776879  0.28855436  0.52508271    -0.30900
H2418       H  0.67699052  0.26092791  0.51797070     0.11000
S2419       S  0.69330402  0.15000278  0.48593374    -0.28000
H2420       H  0.75312367  0.17984443  0.49172276     0.08200
H2421       H  0.86081847  0.30721104  0.47353229     0.26700
H2422       H  0.70788234  0.30154322  0.52895249     0.21500
H2423       H  0.72288373  0.13693034  0.49155569     0.26800
H2424       H  0.75938706  0.20674707  0.56048299     0.15600
C2425       C  0.59467869  0.11276930  0.39345735    -0.11700
C2426       C  0.59411513  0.14468182  0.38559020     0.14900
C2427       C  0.58047573  0.15399508  0.35708464     0.01800
C2428       C  0.56743032  0.13128438  0.33732139    -0.16000
C2429       C  0.56787476  0.09929291  0.34516459    -0.10800
C2430       C  0.58198581  0.08998189  0.37350402     0.08500
C2431       C  0.60612051  0.16741802  0.40880430     0.09500
S2432       S  0.57801593  0.19436811  0.34507315    -0.25200
H2433       H  0.55649149  0.13871094  0.31568768     0.19800
S2434       S  0.58543622  0.04958257  0.38509817    -0.30900
H2435       H  0.60518086  0.10553455  0.41532969     0.10100
C2436       C  0.58627611  0.17937377  0.43179291     0.03300
C2437       C  0.59954993  0.19506605  0.45734426    -0.13200
C2438       C  0.63262421  0.19834526  0.46149574    -0.08800
C2439       C  0.65143500  0.19226462  0.43434840     0.06700
C2440       C  0.63818620  0.17517271  0.40949658    -0.13900
S2441       S  0.54439638  0.17152974  0.43051222    -0.30900
H2442       H  0.58391096  0.20260099  0.47539936     0.11000
S2443       S  0.69083421  0.20682155  0.42677248    -0.28000
H2444       H  0.65298786  0.16796528  0.39027739     0.08200
H2445       H  0.59016280  0.03813986  0.35468913     0.26700
H2446       H  0.53666338  0.18680221  0.45847504     0.21500
H2447       H  0.68740766  0.23589105  0.44107257     0.26800
H2448       H  0.60536024  0.20491844  0.36041504     0.15600
C2449       C  0.59385062  0.27657119  0.53073682    -0.11700
C2450       C  0.60243065  0.30105376  0.51064906     0.14900
C2451       C  0.62086060  0.29456030  0.48425211     0.01800
C2452       C  0.63214055  0.26437751  0.48000588    -0.16000
C2453       C  0.62568658  0.23939975  0.50126965    -0.10800
C2454       C  0.60294836  0.24578886  0.52532681     0.08500
C2455       C  0.59041709  0.33270146  0.51717520     0.09500
S2456       S  0.63090087  0.32369484  0.45505120    -0.25200
H2457       H  0.64697077  0.26056982  0.45999092     0.19800
S2458       S  0.57984978  0.21802431  0.54796621    -0.30900
H2459       H  0.57820949  0.28136340  0.55012088     0.10100
C2460       C  0.55788409  0.33855301  0.51683524     0.03300
C2461       C  0.54757229  0.36894956  0.52185764    -0.13200
C2462       C  0.56892059  0.39396340  0.52613474    -0.08800
C2463       C  0.60136641  0.38800193  0.52759028     0.06700
C2464       C  0.61177489  0.35738132  0.52331302    -0.13900
S2465       S  0.52948369  0.30814050  0.50705430    -0.30900
H2466       H  0.52270722  0.37379158  0.52015966     0.11000
S2467       S  0.63060795  0.41850894  0.53234524    -0.28000
H2468       H  0.63675830  0.35287620  0.52381463     0.08200
H2469       H  0.57479461  0.19602036  0.52441337     0.26700
H2470       H  0.50281169  0.32708178  0.50620972     0.21500
H2471       H  0.61155811  0.43879103  0.54935788     0.26800
H2472       H  0.60289407  0.34046179  0.45762263     0.15600
C2473       C  0.23687669  0.00346768  0.67711530    -0.11700
C2474       C  0.24619291  0.00096457  0.70834918     0.14900
C2475       C  0.22288064  0.99948936  0.73163554     0.01800
C2476       C  0.19141589  0.00352787  0.72350865    -0.16000
C2477       C  0.18175401  0.01067412  0.69248074    -0.10800
C2478       C  0.20514280  0.00668235  0.66875694     0.08500
C2479       C  0.28027800  0.00148174  0.71607269     0.09500
S2480       S  0.23165488  0.99259716  0.77237488    -0.25200
H2481       H  0.17467453  0.00086816  0.74232720     0.19800
S2482       S  0.19674551  0.00794325  0.62751921    -0.30900
H2483       H  0.25480604  0.00392799  0.65910760     0.10100
C2484       C  0.30087674  0.97869202  0.70468519     0.03300
C2485       C  0.33285203  0.98051008  0.71257113    -0.13200
C2486       C  0.34491070  0.00455420  0.73173180    -0.08800
C2487       C  0.32403847  0.02697577  0.74358954     0.06700
C2488       C  0.29225477  0.02554439  0.73513877    -0.13900
S2489       S  0.28654285  0.94664633  0.68092198    -0.30900
H2490       H  0.34865724  0.96321644  0.70342073     0.11000
S2491       S  0.33596964  0.05704122  0.77071697    -0.28000
H2492       H  0.27651660  0.04309005  0.74397887     0.08200
H2493       H  0.22439846  0.99360742  0.61726458     0.26700
H2494       H  0.31615319  0.93599830  0.67143612     0.21500
H2495       H  0.35764975  0.03845302  0.78685356     0.26800
H2496       H  0.25841515  0.97453078  0.76709612     0.15600
C2497       C  0.75525678  0.00892115  0.72653105    -0.11700
C2498       C  0.73671834  0.01032721  0.69983662     0.14900
C2499       C  0.75155116  0.01206502  0.67038407     0.01800
C2500       C  0.78444655  0.00997125  0.66852157    -0.16000
C2501       C  0.80384527  0.00734645  0.69540984    -0.10800
C2502       C  0.78803147  0.00998541  0.72525979     0.08500
C2503       C  0.70220554  0.01166631  0.70500949     0.09500
S2504       S  0.73014765  0.01748768  0.63441083    -0.25200
H2505       H  0.79510361  0.01039317  0.64551755     0.19800
S2506       S  0.80628735  0.01869428  0.76271447    -0.30900
H2507       H  0.74354669  0.00833854  0.74905480     0.10100
C2508       C  0.68177628  0.98664715  0.69706794     0.03300
C2509       C  0.65041178  0.98687838  0.70736872    -0.13200
C2510       C  0.63912945  0.01111351  0.72633795    -0.08800
C2511       C  0.65996216  0.03578371  0.73475429     0.06700
C2512       C  0.69078851  0.03616914  0.72337104    -0.13900
S2513       S  0.69592282  0.95352963  0.67546725    -0.30900
H2514       H  0.63459312  0.96797469  0.70063163     0.11000
S2515       S  0.64958131  0.06623149  0.76171853    -0.28000
H2516       H  0.70668679  0.05494870  0.73039029     0.08200
H2517       H  0.77972760  0.02874976  0.77922162     0.26700
H2518       H  0.66647778  0.93873513  0.67092085     0.21500
H2519       H  0.63102767  0.04661267  0.78112734     0.26800
H2520       H  0.70398223  0.03199433  0.64771828     0.15600
C2521       C  0.34244981  0.13808850  0.56147887    -0.11700
C2522       C  0.36999641  0.14738958  0.57683658     0.14900
C2523       C  0.38299846  0.17715273  0.57047178     0.01800
C2524       C  0.37100702  0.19497917  0.54587982    -0.16000
C2525       C  0.34640059  0.18367088  0.52632681    -0.10800
C2526       C  0.32968043  0.15624994  0.53728508     0.08500
C2527       C  0.38580586  0.12488336  0.59782903     0.09500
S2528       S  0.41548762  0.19335645  0.59252092    -0.25200
H2529       H  0.38187188  0.21765817  0.54205921     0.19800
S2530       S  0.29472143  0.14086184  0.51837242    -0.30900
H2531       H  0.33183475  0.11563177  0.56745702     0.10100
C2532       C  0.37354745  0.11711566  0.62744868     0.03300
C2533       C  0.38997057  0.09651398  0.64684801    -0.13200
C2534       C  0.41862308  0.08326095  0.63739988    -0.08800
C2535       C  0.43001145  0.09021081  0.60691573     0.06700
C2536       C  0.41372428  0.11113014  0.58775921    -0.13900
S2537       S  0.33780397  0.13470659  0.64114156    -0.30900
H2538       H  0.38059524  0.09113846  0.66984171     0.11000
S2539       S  0.46579495  0.07460203  0.59149864    -0.28000
H2540       H  0.42296239  0.11688534  0.56475364     0.08200
H2541       H  0.28616134  0.11891270  0.54163609     0.26700
H2542       H  0.33724696  0.12046021  0.67087149     0.21500
H2543       H  0.45445491  0.04350187  0.59315367     0.26800
H2544       H  0.40813163  0.17773238  0.62069878     0.15600
C2545       C  0.61402700  0.10669940  0.61517501    -0.11700
C2546       C  0.59665521  0.12661700  0.59594357     0.14900
C2547       C  0.56346002  0.12591145  0.59774566     0.01800
C2548       C  0.54842337  0.10579072  0.61914117    -0.16000
C2549       C  0.56576710  0.08594008  0.63831335    -0.10800
C2550       C  0.59889823  0.08608286  0.63606156     0.08500
C2551       C  0.61307621  0.14481844  0.57115233     0.09500
S2552       S  0.54002875  0.15060888  0.57294233    -0.25200
H2553       H  0.52307786  0.10583951  0.62140104     0.19800
S2554       S  0.62295632  0.05963566  0.65817282    -0.30900
H2555       H  0.63941056  0.10641570  0.61304766     0.10100
C2556       C  0.63222542  0.17118534  0.57720310     0.03300
C2557       C  0.64371170  0.18928614  0.55193577    -0.13200
C2558       C  0.63579998  0.18219814  0.52041693    -0.08800
C2559       C  0.62098325  0.15207018  0.51516153     0.06700
C2560       C  0.60911501  0.13485160  0.54051368    -0.13900
S2561       S  0.63952240  0.18345906  0.61691341    -0.30900
H2562       H  0.65654844  0.21074427  0.55692398     0.11000
S2563       S  0.61976945  0.13092595  0.47866909    -0.28000
H2564       H  0.59680403  0.11281118  0.53652702     0.08200
H2565       H  0.60051274  0.03510764  0.65982009     0.26700
H2566       H  0.65751810  0.21042164  0.60950668     0.21500
H2567       H  0.59044970  0.11598221  0.48387772     0.26800
H2568       H  0.51038132  0.13924117  0.58280718     0.15600
C2569       C  0.58199963  0.88471541  0.61931798    -0.11700
C2570       C  0.60753592  0.89925004  0.60386129     0.14900
C2571       C  0.61407613  0.93133183  0.60934599     0.01800
C2572       C  0.59395878  0.94843298  0.62840223    -0.16000
C2573       C  0.56796615  0.93397950  0.64297979    -0.10800
C2574       C  0.56243017  0.90160437  0.63906214     0.08500
C2575       C  0.62213057  0.88242294  0.57742047     0.09500
S2576       S  0.64768334  0.95166382  0.59265496    -0.25200
H2577       H  0.59906022  0.97300157  0.63254175     0.19800
S2578       S  0.53046581  0.88062336  0.65813684    -0.30900
H2579       H  0.57634522  0.86033811  0.61482494     0.10100
C2580       C  0.63571987  0.85294089  0.58059669     0.03300
C2581       C  0.64395619  0.83628041  0.55369321    -0.13200
C2582       C  0.63821995  0.84747738  0.52279288    -0.08800
C2583       C  0.62408031  0.87789710  0.52048482     0.06700
C2584       C  0.61750039  0.89468020  0.54762358    -0.13900
S2585       S  0.64236987  0.83630663  0.61890492    -0.30900
H2586       H  0.65440341  0.81357863  0.55669072     0.11000
S2587       S  0.60636777  0.89505267  0.48620321    -0.28000
H2588       H  0.60542848  0.91671824  0.54567899     0.08200
H2589       H  0.50997862  0.90595958  0.66024984     0.26700
H2590       H  0.65348730  0.80728798  0.60874239     0.21500
H2591       H  0.61258352  0.92646921  0.49417684     0.26800
H2592       H  0.66621578  0.92497463  0.58934006     0.15600
C2593       C  0.39244970  0.88611029  0.62014898    -0.11700
C2594       C  0.39245788  0.89846896  0.58983726     0.14900
C2595       C  0.40638205  0.92801677  0.58383416     0.01800
C2596       C  0.42090278  0.94416812  0.60829802    -0.16000
C2597       C  0.42193846  0.93152820  0.63879153    -0.10800
C2598       C  0.40739609  0.90192877  0.64454852     0.08500
C2599       C  0.37936237  0.87888976  0.56481984     0.09500
S2600       S  0.40718266  0.94606084  0.54551539    -0.25200
H2601       H  0.43148251  0.96689733  0.60331252     0.19800
S2602       S  0.40900023  0.88162060  0.68148154    -0.30900
H2603       H  0.38190883  0.86321518  0.62449844     0.10100
C2604       C  0.39881483  0.86176204  0.54520696     0.03300
C2605       C  0.38519702  0.84272627  0.52237185    -0.13200
C2606       C  0.35221440  0.83846543  0.51933847    -0.08800
C2607       C  0.33300442  0.85903331  0.53756247     0.06700
C2608       C  0.34692245  0.87741191  0.56094306    -0.13900
S2609       S  0.44105004  0.86342625  0.54973511    -0.30900
H2610       H  0.40067028  0.82990638  0.50745041     0.11000
S2611       S  0.29174813  0.86647930  0.53076779    -0.28000
H2612       H  0.33245259  0.89170716  0.57583069     0.08200
H2613       H  0.44155842  0.88702947  0.68461693     0.26700
H2614       H  0.44760428  0.83773087  0.53052570     0.21500
H2615       H  0.29157722  0.89708970  0.54271757     0.26800
H2616       H  0.38082352  0.93022834  0.53315174     0.15600
C2617       C  0.51125826  0.27290920  0.77385795    -0.11700
C2618       C  0.48817628  0.25234204  0.78548922     0.14900
C2619       C  0.46632421  0.26363469  0.80738069     0.01800
C2620       C  0.46724209  0.29530435  0.81603289    -0.16000
C2621       C  0.48886469  0.31719259  0.80261012    -0.10800
C2622       C  0.51205062  0.30475002  0.78179078     0.08500
C2623       C  0.48870989  0.21897256  0.77536655     0.09500
S2624       S  0.43614539  0.23896871  0.82484807    -0.25200
H2625       H  0.45058443  0.30242692  0.83349714     0.19800
S2626       S  0.54154707  0.32915646  0.76248681    -0.30900
H2627       H  0.52851879  0.26382780  0.75782628     0.10100
C2628       C  0.48324332  0.21003299  0.74394714     0.03300
C2629       C  0.48430809  0.17820328  0.73559119    -0.13200
C2630       C  0.49094168  0.15514214  0.75795024    -0.08800
C2631       C  0.49625022  0.16424303  0.78929350     0.06700
C2632       C  0.49558676  0.19584805  0.79752695    -0.13900
S2633       S  0.47400675  0.23897627  0.71461814    -0.30900
H2634       H  0.47986712  0.17120558  0.71167154     0.11000
S2635       S  0.50268116  0.13639061  0.82014905    -0.28000
H2636       H  0.49995530  0.20245610  0.82159781     0.08200
H2637       H  0.55661027  0.30576129  0.74537409     0.26700
H2638       H  0.47478040  0.21879814  0.68875003     0.21500
H2639       H  0.47735154  0.11718810  0.81099461     0.26800
H2640       H  0.43220309  0.21889713  0.79915305     0.15600
C2641       C  0.46388288  0.74794037  0.78915330    -0.11700
C2642       C  0.49148808  0.76336137  0.77929523     0.14900
C2643       C  0.51950073  0.74649524  0.77847616     0.01800
C2644       C  0.51979213  0.71576703  0.78957085    -0.16000
C2645       C  0.49256539  0.69962190  0.80062885    -0.10800
C2646       C  0.46340113  0.71605477  0.79784593     0.08500
C2647       C  0.49094353  0.79737534  0.77147536     0.09500
S2648       S  0.55582585  0.76259476  0.76291323    -0.25200
H2649       H  0.54207175  0.70435303  0.78967661     0.19800
S2650       S  0.42472867  0.69771256  0.80124090    -0.30900
H2651       H  0.44232054  0.76098510  0.78915779     0.10100
C2652       C  0.47243578  0.80953866  0.74699289     0.03300
C2653       C  0.47305174  0.84195405  0.74092726    -0.13200
C2654       C  0.49259707  0.86245918  0.75802468    -0.08800
C2655       C  0.51133514  0.84994425  0.78223060     0.06700
C2656       C  0.51005117  0.81790114  0.78882015    -0.13900
S2657       S  0.44928323  0.78377351  0.72241252    -0.30900
H2658       H  0.45876556  0.85127380  0.72236474     0.11000
S2659       S  0.53687998  0.87351040  0.80628966    -0.28000
H2660       H  0.52418585  0.80879416  0.80776682     0.08200
H2661       H  0.40646572  0.72350008  0.79282382     0.26700
H2662       H  0.43920322  0.80675743  0.70119290     0.21500
H2663       H  0.51563232  0.89808800  0.80914295     0.26800
H2664       H  0.54176793  0.78221165  0.74063893     0.15600
C2665       C  0.34830898  0.11166625  0.92984090    -0.11700
C2666       C  0.36236066  0.13377586  0.91021849     0.14900
C2667       C  0.35419323  0.16543252  0.91361006     0.01800
C2668       C  0.33397592  0.17408849  0.93810178    -0.16000
C2669       C  0.32553330  0.15283136  0.96239975    -0.10800
C2670       C  0.33186214  0.12029392  0.95653944     0.08500
C2671       C  0.38489310  0.12178750  0.88672376     0.09500
S2672       S  0.37033444  0.19612039  0.88902002    -0.25200
H2673       H  0.32696522  0.19813487  0.93890781     0.19800
S2674       S  0.32371818  0.08866866  0.98371786    -0.30900
H2675       H  0.35285422  0.08724184  0.92549598     0.10100
C2676       C  0.41013756  0.10255953  0.89575938     0.03300
C2677       C  0.42640380  0.08578972  0.87311403    -0.13200
C2678       C  0.41939263  0.08881994  0.84120655    -0.08800
C2679       C  0.39672681  0.11130862  0.83212219     0.06700
C2680       C  0.37886519  0.12619090  0.85490611    -0.13900
S2681       S  0.42168588  0.09851507  0.93619563    -0.30900
H2682       H  0.44441984  0.06984898  0.88056602     0.11000
S2683       S  0.38987701  0.12355968  0.79234389    -0.28000
H2684       H  0.35998838  0.14129407  0.84770917     0.08200
H2685       H  0.33569868  0.06342737  0.96677805     0.26700
H2686       H  0.45049941  0.08384115  0.93076210     0.21500
H2687       H  0.42194999  0.12995936  0.78662926     0.26800
H2688       H  0.39964601  0.18215695  0.88438451     0.15600
C2689       C  0.34967157  0.91384047  0.94426537    -0.11700
C2690       C  0.35819764  0.89439667  0.91978672     0.14900
C2691       C  0.35024174  0.86237553  0.92153688     0.01800
C2692       C  0.33355690  0.85072324  0.94755155    -0.16000
C2693       C  0.32244531  0.87027169  0.97182249    -0.10800
C2694       C  0.33222860  0.90274863  0.96992261     0.08500
C2695       C  0.37701977  0.90840436  0.89390366     0.09500
S2696       S  0.36157033  0.83468592  0.89201632    -0.25200
H2697       H  0.33011892  0.82572964  0.94862145     0.19800
S2698       S  0.32453482  0.93266278  0.99852245    -0.30900
H2699       H  0.35665047  0.93835080  0.94322354     0.10100
C2700       C  0.36263314  0.92214674  0.86765401     0.03300
C2701       C  0.38141414  0.93681412  0.84456812    -0.13200
C2702       C  0.41432374  0.93862792  0.84757596    -0.08800
C2703       C  0.42851341  0.92467391  0.87398190     0.06700
C2704       C  0.40978040  0.90994078  0.89683066    -0.13900
S2705       S  0.32035456  0.92117370  0.86383261    -0.30900
H2706       H  0.37043211  0.94745165  0.82440256     0.11000
S2707       S  0.47040480  0.92400635  0.87950680    -0.28000
H2708       H  0.42082486  0.89955676  0.91712449     0.08200
H2709       H  0.29300492  0.92506054  0.00399698     0.26700
H2710       H  0.31893756  0.93970639  0.83660065     0.21500
H2711       H  0.47741503  0.91990343  0.84765328     0.26800
H2712       H  0.36547822  0.85592686  0.86711852     0.15600
C2713       C  0.62352860  0.93059002  0.86914489    -0.11700
C2714       C  0.60905318  0.90663307  0.88697311     0.14900
C2715       C  0.57633660  0.90101502  0.88338943     0.01800
C2716       C  0.55875930  0.92056420  0.86428401    -0.16000
C2717       C  0.57307533  0.94407404  0.84619006    -0.10800
C2718       C  0.60604371  0.94883958  0.84820332     0.08500
C2719       C  0.62654307  0.89152084  0.91300766     0.09500
S2720       S  0.55556232  0.86871436  0.90199481    -0.25200
H2721       H  0.53382987  0.91603482  0.86199322     0.19800
S2722       S  0.62719496  0.97794937  0.82523929    -0.30900
H2723       H  0.64841909  0.93555981  0.87203891     0.10100
C2724       C  0.65361245  0.87338153  0.90904906     0.03300
C2725       C  0.66818399  0.86002355  0.93556398    -0.13200
C2726       C  0.65594235  0.86386429  0.96619341    -0.08800
C2727       C  0.62528895  0.87754652  0.96821101     0.06700
C2728       C  0.61357353  0.89400017  0.94274285    -0.13900
S2729       S  0.67021291  0.86808334  0.87065860    -0.30900
H2730       H  0.69028131  0.84823158  0.93268875     0.11000
S2731       S  0.59693567  0.87062551  0.99941203    -0.28000
H2732       H  0.59234877  0.90732173  0.94542021     0.08200
H2733       H  0.60152414  0.99646729  0.81705394     0.26700
H2734       H  0.69248021  0.84581481  0.87956156     0.21500
H2735       H  0.57110729  0.88645878  0.98688241     0.26800
H2736       H  0.58159492  0.84895527  0.90363844     0.15600
C2737       C  0.59407569  0.09261779  0.89328168    -0.11700
C2738       C  0.60647794  0.12166200  0.88354288     0.14900
C2739       C  0.59953104  0.13317404  0.85346289     0.01800
C2740       C  0.58087845  0.11488418  0.83358787    -0.16000
C2741       C  0.56906365  0.08525176  0.84288351    -0.10800
C2742       C  0.57582366  0.07413273  0.87329272     0.08500
C2743       C  0.62900702  0.13723453  0.90457421     0.09500
S2744       S  0.61392633  0.17036270  0.83842013    -0.25200
H2745       H  0.57570279  0.12391152  0.81045416     0.19800
S2746       S  0.56413220  0.03586301  0.88740705    -0.30900
H2747       H  0.59986016  0.08364369  0.91628010     0.10100
C2748       C  0.61952364  0.15940746  0.92636621     0.03300
C2749       C  0.64020135  0.16809462  0.95034285    -0.13200
C2750       C  0.67041345  0.15457902  0.95380578    -0.08800
C2751       C  0.68096846  0.13527058  0.92839882     0.06700
C2752       C  0.65967966  0.12646794  0.90504084    -0.13900
S2753       S  0.58005080  0.17422170  0.92542537    -0.30900
H2754       H  0.63153278  0.18344355  0.96830070     0.11000
S2755       S  0.71959641  0.11968129  0.92171276    -0.28000
H2756       H  0.66683334  0.11013444  0.88716307     0.08200
H2757       H  0.57264157  0.02059429  0.85972706     0.26700
H2758       H  0.58374865  0.19559851  0.95009992     0.21500
H2759       H  0.73719995  0.14662031  0.92859812     0.26800
H2760       H  0.63080603  0.18080055  0.86462082     0.15600
loop_ 
_geom_bond_atom_site_label_1 
_geom_bond_atom_site_label_2 
_geom_bond_distance 
_geom_bond_site_symmetry_2 
_ccdc_geom_bond_type 
O1          Zr37   2.445       .  S
O1           C12   1.294       .  A
O2          Zr36   2.447       .  S
O2           C13   1.294       .  A
O3           Zr9   2.447       .  S
O3           C14   1.294       .  A
O4           Zr9   2.460       .  S
O4           C15   1.295       .  A
O5          Zr39   2.454       .  S
O5           C15   1.294       .  A
O6          Zr38   2.437       .  S
O6           C14   1.292   1_565  A
O7           Zr9   2.420       .  S
O7           C13   1.288       .  A
O8           Zr9   2.411       .  S
O8           C12   1.288       .  A
Zr9          O10   2.343       .  S
Zr9          O11   2.343       .  S
Zr9          O19   2.329       .  S
Zr9          O17   2.332       .  S
O10         Zr36   2.345       .  S
O10         Zr39   2.342       .  S
O11         Zr37   2.348       .  S
O11         Zr38   2.338   1_545  S
C12        C2741   1.478       .  S
C13        C2549   1.466       .  S
C14        C2510   1.485       .  S
C15        C2630   1.483       .  S
H16          O17   0.965       .  S
O17         Zr36   2.324       .  S
O17         Zr38   2.342   1_545  S
H18          O19   0.962       .  S
O19         Zr37   2.326       .  S
O19         Zr39   2.333       .  S
O20         Zr36   2.422   1_565  S
O20          C43   1.291       .  A
O21         Zr37   2.450   1_565  S
O21          C44   1.295       .  A
O22         Zr38   2.410       .  S
O22          C45   1.286       .  A
O23         Zr39   2.419       .  S
O23          C46   1.290       .  A
O24         Zr39   2.403       .  S
O24          C47   1.283       .  A
O25         Zr38   2.419       .  S
O25          C48   1.288       .  A
O26         Zr40   2.451       .  S
O26          C49   1.294       .  A
O27         Zr40   2.431       .  S
O27          C50   1.291   1_565  A
O28         Zr38   2.453       .  S
O28          C49   1.295       .  A
O29         Zr39   2.451       .  S
O29          C50   1.294       .  A
O30         Zr36   2.461   1_565  S
O30          C45   1.296       .  A
O31         Zr37   2.464   1_565  S
O31          C48   1.297       .  A
O32         Zr37   2.463       .  S
O32          C47   1.299       .  A
O33         Zr36   2.465       .  S
O33          C46   1.296       .  A
O34         Zr40   2.437       .  S
O34          C43   1.291       .  A
O35         Zr40   2.445       .  S
O35          C44   1.293       .  A
Zr36         O42   2.357   1_545  S
Zr36         O54   2.338       .  S
Zr37         O41   2.351       .  S
Zr37         O52   2.338   1_545  S
Zr38         O42   2.338       .  S
Zr38         O52   2.339       .  S
Zr39         O41   2.343       .  S
Zr39         O54   2.331       .  S
Zr40         O41   2.342   1_565  S
Zr40         O42   2.342       .  S
Zr40         O54   2.346   1_565  S
Zr40         O52   2.343       .  S
C43        C2597   1.483       .  S
C44        C2702   1.484       .  S
C45        C2573   1.465       .  S
C46        C2534   1.495       .  S
C47        C2678   1.493       .  S
C48        C2717   1.473       .  S
C49        C2654   1.489       .  S
C50        C2486   1.484       .  S
H51          O52   0.965       .  S
H53          O54   0.965       .  S
C55        C2414   1.585       .  S
C55        C2438   1.574       .  S
C55        C2453   1.587       .  S
C55        C2558   1.572       .  S
O56         Zr92   2.419       .  S
O56          C67   1.289       .  A
O57         Zr91   2.431       .  S
O57          C68   1.291       .  A
O58         Zr64   2.446       .  S
O58          C69   1.293       .  A
O59         Zr64   2.458   1_565  S
O59          C70   1.295       .  A
O60         Zr94   2.419       .  S
O60          C70   1.290       .  A
O61         Zr93   2.436       .  S
O61          C69   1.291       .  A
O62         Zr64   2.451   1_565  S
O62          C68   1.295       .  A
O63         Zr64   2.453       .  S
O63          C67   1.295       .  A
Zr64         O65   2.356   1_545  S
Zr64         O66   2.347       .  S
Zr64         O74   2.333       .  S
Zr64         O72   2.337       .  S
O65         Zr91   2.348       .  S
O65         Zr94   2.343       .  S
O66         Zr92   2.340       .  S
O66         Zr93   2.334       .  S
C67        C2429   1.476       .  S
C68        C2189   1.486       .  S
C69        C2246   1.472       .  S
C70        C2213   1.493       .  S
H71          O72   0.965       .  S
O72         Zr91   2.341   1_545  S
O72         Zr93   2.339       .  S
H73          O74   0.965       .  S
O74         Zr92   2.338       .  S
O74         Zr94   2.338   1_545  S
O75         Zr91   2.431       .  S
O75          C98   1.291       .  A
O76         Zr92   2.428       .  S
O76          C99   1.289       .  A
O77         Zr93   2.447       .  S
O77         C100   1.292       .  A
O78         Zr94   2.449       .  S
O78         C101   1.293       .  A
O79         Zr94   2.448       .  S
O79         C102   1.293   1_565  A
O80         Zr93   2.459       .  S
O80         C103   1.296       .  A
O81         Zr95   2.472       .  S
O81         C104   1.299       .  A
O82         Zr95   2.470   1_565  S
O82         C105   1.300       .  A
O83         Zr93   2.422       .  S
O83         C104   1.288       .  A
O84         Zr94   2.407       .  S
O84         C105   1.284       .  A
O85         Zr91   2.453       .  S
O85         C100   1.296   1_565  A
O86         Zr92   2.429       .  S
O86         C103   1.290       .  A
O87         Zr92   2.433       .  S
O87         C102   1.292       .  A
O88         Zr91   2.469       .  S
O88         C101   1.297       .  A
O89         Zr95   2.447   1_565  S
O89          C98   1.294       .  A
O90         Zr95   2.461       .  S
O90          C99   1.297       .  A
Zr91         O97   2.347   1_565  S
Zr91        O109   2.331       .  S
Zr92         O96   2.334       .  S
Zr92        O107   2.340       .  S
Zr93         O97   2.344       .  S
Zr93        O107   2.345       .  S
Zr94         O96   2.342   1_565  S
Zr94        O109   2.337       .  S
Zr95         O96   2.352       .  S
Zr95         O97   2.353       .  S
Zr95        O109   2.335   1_545  S
Zr95        O107   2.334       .  S
C98        C2366   1.474       .  S
C99        C2318   1.478       .  S
C100       C2141   1.503       .  S
C101       C2294   1.485       .  S
C102       C2174   1.486       .  S
C103       C2270   1.475       .  S
C104       C2390   1.477       .  S
C105       C2333   1.496       .  S
H106        O107   0.963       .  S
H108        O109   0.960       .  S
C110       C2102   1.588   1_554  S
C110       C2126   1.577       .  S
C110       C2357   1.580       .  S
C110       C2693   1.576   1_554  S
C111       C2054   1.596       .  S
C111       C2069   1.587       .  S
C111       C2342   1.574   1_556  S
C111       C2726   1.574       .  S
C112       C1997   1.595       .  S
C112       C2021   1.575       .  S
C112       C2222   1.570       .  S
C112       C2582   1.586       .  S
C113       C1958   1.605       .  S
C113       C1973   1.580       .  S
C113       C2381   1.572   1_556  S
C113       C2669   1.578       .  S
C114       C1910   1.596       .  S
C114       C1934   1.580       .  S
C114       C2309   1.587   1_556  S
C114       C2750   1.563       .  S
C115       C1862   1.581       .  S
C115       C1886   1.583       .  S
C115       C2237   1.581       .  S
C115       C2525   1.580       .  S
C116       C1814   1.571       .  S
C116       C1838   1.568       .  S
C116       C2198   1.577       .  S
C116       C2606   1.563       .  S
O117       Zr153   2.456       .  S
O117        C128   1.295       .  A
O118       Zr152   2.452       .  S
O118        C129   1.295   1_455  A
O119       Zr125   2.417       .  S
O119        C130   1.287       .  A
O120       Zr125   2.410       .  S
O120        C131   1.287       .  A
O121       Zr155   2.457       .  S
O121        C131   1.296       .  A
O122       Zr154   2.429       .  S
O122        C130   1.290       .  A
O123       Zr125   2.445       .  S
O123        C129   1.293       .  A
O124       Zr125   2.455       .  S
O124        C128   1.295       .  A
Zr125       O126   2.343       .  S
Zr125       O127   2.337       .  S
Zr125       O135   2.332       .  S
Zr125       O133   2.338       .  S
O126       Zr152   2.342   1_655  S
O126       Zr155   2.346       .  S
O127       Zr153   2.335       .  S
O127       Zr154   2.347       .  S
C128       C2006   1.501       .  S
C129       C1589   1.490       .  S
C130       C1661   1.452       .  S
C131       C1757   1.479       .  S
H132        O133   0.965       .  S
O133       Zr152   2.340   1_655  S
O133       Zr154   2.335       .  S
H134        O135   0.965       .  S
O135       Zr153   2.348       .  S
O135       Zr155   2.345       .  S
O136       Zr152   2.459       .  S
O136        C159   1.295       .  A
O137       Zr153   2.456       .  S
O137        C160   1.296       .  A
O138       Zr154   2.444   1_455  S
O138        C161   1.294       .  A
O139       Zr155   2.466   1_455  S
O139        C162   1.298       .  A
O140       Zr155   2.438       .  S
O140        C163   1.293       .  A
O141       Zr154   2.452       .  S
O141        C164   1.293       .  A
O142       Zr156   2.439       .  S
O142        C165   1.291       .  A
O143       Zr156   2.429       .  S
O143        C166   1.288       .  A
O144       Zr154   2.445   1_455  S
O144        C165   1.293       .  A
O145       Zr155   2.473   1_455  S
O145        C166   1.300       .  A
O146       Zr152   2.427       .  S
O146        C161   1.290       .  A
O147       Zr153   2.454       .  S
O147        C164   1.296       .  A
O148       Zr153   2.425       .  S
O148        C163   1.290       .  A
O149       Zr152   2.425       .  S
O149        C162   1.289       .  A
O150       Zr156   2.423       .  S
O150        C159   1.288       .  A
O151       Zr156   2.424       .  S
O151        C160   1.288   1_455  A
Zr152       O158   2.344       .  S
Zr152       O170   2.342       .  S
Zr153       O157   2.346       .  S
Zr153       O168   2.339       .  S
Zr154       O158   2.347   1_655  S
Zr154       O168   2.334       .  S
Zr155       O157   2.353       .  S
Zr155       O170   2.329   1_655  S
Zr156       O157   2.332   1_455  S
Zr156       O158   2.339       .  S
Zr156       O170   2.340       .  S
Zr156       O168   2.340   1_455  S
C159       C1805   1.467       .  S
C160       C1574   1.491       .  S
C161       C1646   1.474       .  S
C162       C1781   1.488       .  S
C163       C1742   1.461       .  S
C164       C1685   1.507       .  S
C165       C1613   1.472       .  S
C166       C1709   1.502       .  S
H167        O168   0.965       .  S
H169        O170   0.969       .  S
O171       Zr207   2.437       .  S
O171        C182   1.292       .  A
O172       Zr206   2.454       .  S
O172        C183   1.293   1_455  A
O173       Zr179   2.443       .  S
O173        C184   1.293       .  A
O174       Zr179   2.441       .  S
O174        C185   1.294       .  A
O175       Zr209   2.438       .  S
O175        C185   1.293       .  A
O176       Zr208   2.451       .  S
O176        C184   1.295       .  A
O177       Zr179   2.443       .  S
O177        C183   1.294       .  A
O178       Zr179   2.443       .  S
O178        C182   1.293       .  A
Zr179       O180   2.344       .  S
Zr179       O181   2.339       .  S
Zr179       O189   2.344       .  S
Zr179       O187   2.338       .  S
O180       Zr206   2.327   1_655  S
O180       Zr209   2.342       .  S
O181       Zr207   2.339       .  S
O181       Zr208   2.344       .  S
C182       C2405   1.483       .  S
C183       C1349   1.506       .  S
C184       C1493   1.486       .  S
C185       C1406   1.479       .  S
H186        O187   0.966       .  S
O187       Zr206   2.339   1_655  S
O187       Zr208   2.355       .  S
H188        O189   0.966       .  S
O189       Zr207   2.333       .  S
O189       Zr209   2.356       .  S
O190       Zr206   2.439       .  S
O190        C213   1.292       .  A
O191       Zr207   2.431       .  S
O191        C214   1.290       .  A
O192       Zr208   2.451   1_455  S
O192        C215   1.295       .  A
O193       Zr209   2.469   1_455  S
O193        C216   1.298       .  A
O194       Zr209   2.453       .  S
O194        C217   1.296       .  A
O195       Zr208   2.461       .  S
O195        C218   1.296       .  A
O196       Zr210   2.431       .  S
O196        C219   1.290       .  A
O197       Zr210   2.410       .  S
O197        C220   1.287       .  A
O198       Zr208   2.455   1_455  S
O198        C219   1.296       .  A
O199       Zr209   2.445   1_455  S
O199        C220   1.295       .  A
O200       Zr206   2.389       .  S
O200        C215   1.284       .  A
O201       Zr207   2.418       .  S
O201        C218   1.289       .  A
O202       Zr207   2.432       .  S
O202        C217   1.289       .  A
O203       Zr206   2.420       .  S
O203        C216   1.289       .  A
O204       Zr210   2.450       .  S
O204        C213   1.294       .  A
O205       Zr210   2.440       .  S
O205        C214   1.291   1_455  A
Zr206       O212   2.338       .  S
Zr206       O224   2.334       .  S
Zr207       O211   2.330       .  S
Zr207       O222   2.345       .  S
Zr208       O212   2.338   1_655  S
Zr208       O222   2.347       .  S
Zr209       O211   2.336       .  S
Zr209       O224   2.349   1_655  S
Zr210       O211   2.337   1_455  S
Zr210       O212   2.322       .  S
Zr210       O224   2.346       .  S
Zr210       O222   2.337   1_455  S
C213       C1853   1.485       .  S
C214       C1325   1.466       .  S
C215       C1469   1.478       .  S
C216       C1421   1.488       .  S
C217       C1373   1.498       .  S
C218       C1526   1.479       .  S
C219       C1541   1.492       .  S
C220       C1445   1.475       .  S
H221        O222   0.966       .  S
H223        O224   0.966       .  S
C225       C1286   1.561       .  S
C225       C1301   1.589       .  S
C225       C1397   1.588       .  S
C225       C1670   1.569       .  S
C226       C1229   1.579       .  S
C226       C1253   1.576       .  S
C226       C1430   1.583       .  S
C226       C1637   1.570       .  S
C227       C1205   1.575       .  S
C227       C1517   1.566       .  S
C227       C1733   1.574   1_545  S
C227       C2165   1.568       .  S
C228       C1181   1.568   1_545  S
C228       C1502   1.594       .  S
C228       C1766   1.574   1_545  S
C228       C2501   1.580       .  S
C229       C1142   1.589       .  S
C229       C1166   1.579       .  S
C229       C1382   1.578       .  S
C229       C1694   1.596       .  S
C230       C1085   1.577       .  S
C230       C1109   1.575       .  S
C230       C1454   1.573       .  S
C230       C1622   1.585       .  S
C231       C1070   1.576       .  S
C231       C1550   1.584       .  S
C231       C1718   1.595   1_545  S
C231       C2150   1.577       .  S
C232       C1046   1.588       .  S
C232       C1478   1.558       .  S
C232       C1790   1.582   1_545  S
C232       C2477   1.578       .  S
O233       Zr269   2.445       .  S
O233        C244   1.292       .  A
O234       Zr268   2.453       .  S
O234        C245   1.295       .  A
O235       Zr241   2.439       .  S
O235        C246   1.294       .  A
O236       Zr241   2.423       .  S
O236        C247   1.289       .  A
O237       Zr271   2.436   1_554  S
O237        C247   1.291       .  A
O238       Zr270   2.439   1_554  S
O238        C246   1.291       .  A
O239       Zr241   2.447       .  S
O239        C245   1.294       .  A
O240       Zr241   2.467       .  S
O240        C244   1.298   1_554  A
Zr241       O242   2.344       .  S
Zr241       O243   2.326   1_554  S
Zr241       O251   2.344   1_554  S
Zr241       O249   2.341       .  S
O242       Zr268   2.330       .  S
O242       Zr271   2.341   1_554  S
O243       Zr269   2.335       .  S
O243       Zr270   2.335       .  S
C244       C2045   1.510       .  S
C245       C1133   1.491       .  S
C246        C878   1.499       .  S
C247       C1013   1.456       .  S
H248        O249   0.966       .  S
O249       Zr268   2.346       .  S
O249       Zr270   2.357   1_554  S
H250        O251   0.965       .  S
O251       Zr269   2.336       .  S
O251       Zr271   2.362       .  S
O252       Zr268   2.451       .  S
O252        C275   1.294   1_554  A
O253       Zr269   2.446       .  S
O253        C276   1.293       .  A
O254       Zr270   2.460   1_554  S
O254        C277   1.297       .  A
O255       Zr271   2.452   1_554  S
O255        C278   1.295       .  A
O256       Zr271   2.452       .  S
O256        C279   1.296       .  A
O257       Zr270   2.456       .  S
O257        C280   1.296       .  A
O258       Zr272   2.426       .  S
O258        C281   1.289       .  A
O259       Zr272   2.426       .  S
O259        C282   1.291       .  A
O260       Zr270   2.467       .  S
O260        C281   1.299       .  A
O261       Zr271   2.467       .  S
O261        C282   1.298       .  A
O262       Zr268   2.416       .  S
O262        C277   1.288       .  A
O263       Zr269   2.425       .  S
O263        C280   1.290       .  A
O264       Zr269   2.442       .  S
O264        C279   1.293       .  A
O265       Zr268   2.434       .  S
O265        C278   1.291       .  A
O266       Zr272   2.442       .  S
O266        C275   1.293       .  A
O267       Zr272   2.423       .  S
O267        C276   1.289       .  A
Zr268       O274   2.342   1_554  S
Zr268       O286   2.341   1_554  S
Zr269       O273   2.342       .  S
Zr269       O284   2.342       .  S
Zr270       O274   2.335       .  S
Zr270       O284   2.349       .  S
Zr271       O273   2.340       .  S
Zr271       O286   2.351       .  S
Zr272       O273   2.344       .  S
Zr272       O274   2.331       .  S
Zr272       O286   2.341       .  S
Zr272       O284   2.341       .  S
C275       C1901   1.483       .  S
C276       C1277   1.471       .  S
C277        C845   1.474       .  S
C278        C941   1.491       .  S
C279        C998   1.490       .  S
C280        C893   1.482       .  S
C281        C926   1.491       .  S
C282        C974   1.490       .  S
H283        O284   0.966       .  S
H285        O286   0.966       .  S
O287       Zr323   2.453       .  S
O287        C298   1.295   1_556  A
O288       Zr322   2.459       .  S
O288        C299   1.296       .  A
O289       Zr295   2.437       .  S
O289        C300   1.292       .  A
O290       Zr295   2.434       .  S
O290        C301   1.292       .  A
O291       Zr325   2.479       .  S
O291        C301   1.300       .  A
O292       Zr324   2.462       .  S
O292        C300   1.297       .  A
O293       Zr295   2.431       .  S
O293        C299   1.291       .  A
O294       Zr295   2.444       .  S
O294        C298   1.292       .  A
Zr295       O296   2.346       .  S
Zr295       O297   2.342       .  S
Zr295       O305   2.340       .  S
Zr295       O303   2.348       .  S
O296       Zr322   2.344       .  S
O296       Zr325   2.355       .  S
O297       Zr323   2.340   1_554  S
O297       Zr324   2.353       .  S
C298       C2093   1.483       .  S
C299       C1094   1.484       .  S
C300        C710   1.490       .  S
C301        C797   1.496       .  S
H302        O303   0.965       .  S
O303       Zr322   2.343       .  S
O303       Zr324   2.332       .  S
H304        O305   0.965       .  S
O305       Zr323   2.337   1_554  S
O305       Zr325   2.342       .  S
O306       Zr322   2.459       .  S
O306        C329   1.297   1_554  A
O307       Zr323   2.433       .  S
O307        C330   1.289       .  A
O308       Zr324   2.459       .  S
O308        C331   1.296       .  A
O309       Zr325   2.453       .  S
O309        C332   1.297       .  A
O310       Zr325   2.453   1_556  S
O310        C333   1.295       .  A
O311       Zr324   2.440   1_556  S
O311        C334   1.291       .  A
O312       Zr326   2.417       .  S
O312        C335   1.288       .  A
O313       Zr326   2.416       .  S
O313        C336   1.287       .  A
O314       Zr324   2.434   1_556  S
O314        C335   1.291       .  A
O315       Zr325   2.476   1_556  S
O315        C336   1.299       .  A
O316       Zr322   2.427       .  S
O316        C331   1.289       .  A
O317       Zr323   2.435       .  S
O317        C334   1.293       .  A
O318       Zr323   2.430       .  S
O318        C333   1.292       .  A
O319       Zr322   2.408       .  S
O319        C332   1.284       .  A
O320       Zr326   2.467       .  S
O320        C329   1.297       .  A
O321       Zr326   2.467       .  S
O321        C330   1.298       .  A
Zr322       O328   2.333       .  S
Zr322       O340   2.344       .  S
Zr323       O327   2.342       .  S
Zr323       O338   2.338       .  S
Zr324       O328   2.348       .  S
Zr324       O338   2.340   1_554  S
Zr325       O327   2.350   1_554  S
Zr325       O340   2.333       .  S
Zr326       O327   2.342       .  S
Zr326       O328   2.346   1_556  S
Zr326       O340   2.335   1_556  S
Zr326       O338   2.332       .  S
C329       C1949   1.500       .  S
C330       C1238   1.507       .  S
C331        C677   1.496       .  S
C332        C821   1.490       .  S
C333        C773   1.493       .  S
C334        C725   1.495       .  S
C335        C662   1.459       .  S
C336        C758   1.478       .  S
H337        O338   0.965       .  S
H339        O340   0.965   1_556  S
C341        C629   1.571       .  S
C341        C734   1.577       .  S
C341        C989   1.593   1_455  S
C341       C1598   1.581   1_455  S
C342        C605   1.579   1_655  S
C342        C653   1.568   1_655  S
C342        C965   1.574       .  S
C342       C1358   1.578       .  S
C343        C590   1.565       .  S
C343        C782   1.574       .  S
C343        C902   1.568       .  S
C343       C2645   1.575       .  S
C344        C566   1.583       .  S
C344        C806   1.593       .  S
C344        C869   1.564       .  S
C344       C2285   1.590       .  S
C345        C533   1.576       .  S
C345        C686   1.574   1_655  S
C345        C950   1.575       .  S
C345       C1334   1.574       .  S
C346        C509   1.586       .  S
C346        C701   1.594   1_655  S
C346       C1022   1.575       .  S
C346       C1565   1.564       .  S
C347        C494   1.596       .  S
C347        C749   1.588       .  S
C347        C917   1.574       .  S
C347       C2621   1.585       .  S
C348        C470   1.578       .  S
C348        C830   1.575       .  S
C348        C854   1.584       .  S
C348       C2261   1.577       .  S
O349       Zr385   2.464       .  S
O349        C360   1.296       .  A
O350       Zr384   2.453       .  S
O350        C361   1.294       .  A
O351       Zr357   2.454       .  S
O351        C362   1.294       .  A
O352       Zr357   2.448       .  S
O352        C363   1.293       .  A
O353       Zr387   2.419       .  S
O353        C363   1.289       .  A
O354       Zr386   2.418       .  S
O354        C362   1.289       .  A
O355       Zr357   2.420       .  S
O355        C361   1.289       .  A
O356       Zr357   2.402       .  S
O356        C360   1.286       .  A
Zr357       O358   2.331       .  S
Zr357       O359   2.337       .  S
Zr357       O367   2.339       .  S
Zr357       O365   2.338       .  S
O358       Zr384   2.331       .  S
O358       Zr387   2.335       .  S
O359       Zr385   2.336       .  S
O359       Zr386   2.326       .  S
C360       C2462   1.469       .  S
C361        C461   1.475       .  S
C362       C1877   1.476       .  S
C363       C1157   1.471       .  S
H364        O365   0.966       .  S
O365       Zr384   2.346       .  S
O365       Zr386   2.349       .  S
H366        O367   0.965       .  S
O367       Zr385   2.345       .  S
O367       Zr387   2.350       .  S
O368       Zr384   2.453       .  S
O368        C391   1.294       .  A
O369       Zr385   2.455       .  S
O369        C392   1.295       .  A
O370       Zr386   2.438       .  S
O370        C393   1.291       .  A
O371       Zr387   2.478       .  S
O371        C394   1.298       .  A
O372       Zr387   2.452       .  S
O372        C395   1.294       .  A
O373       Zr386   2.460       .  S
O373        C396   1.295       .  A
O374       Zr388   2.455       .  S
O374        C397   1.294       .  A
O375       Zr388   2.434       .  S
O375        C398   1.290       .  A
O376       Zr386   2.402       .  S
O376        C397   1.286       .  A
O377       Zr387   2.427       .  S
O377        C398   1.290       .  A
O378       Zr384   2.411       .  S
O378        C393   1.288       .  A
O379       Zr385   2.430       .  S
O379        C396   1.291       .  A
O380       Zr385   2.431       .  S
O380        C395   1.291       .  A
O381       Zr384   2.406       .  S
O381        C394   1.288       .  A
O382       Zr388   2.415       .  S
O382        C391   1.288       .  A
O383       Zr388   2.403       .  S
O383        C392   1.286       .  A
Zr384       O390   2.328       .  S
Zr384       O402   2.339       .  S
Zr385       O389   2.343       .  S
Zr385       O400   2.347       .  S
Zr386       O390   2.334       .  S
Zr386       O400   2.337       .  S
Zr387       O389   2.344       .  S
Zr387       O402   2.339       .  S
Zr388       O389   2.342       .  S
Zr388       O390   2.322       .  S
Zr388       O402   2.343       .  S
Zr388       O400   2.338       .  S
C391       C1829   1.468       .  S
C392        C581   1.460       .  S
C393       C1118   1.456       .  S
C394        C557   1.492       .  S
C395       C1310   1.470       .  S
C396        C485   1.480       .  S
C397       C1262   1.468       .  S
C398       C2030   1.460       .  S
H399        O400   0.966       .  S
H401        O402   0.965       .  S
O403       Zr439   2.467       .  S
O403        C414   1.297       .  A
O404       Zr438   2.467   1_455  S
O404        C415   1.297       .  A
O405       Zr411   2.502       .  S
O405        C416   1.303       .  A
O406       Zr411   2.464   1_545  S
O406        C417   1.296       .  A
O407       Zr441   2.400       .  S
O407        C417   1.285   1_554  A
O408       Zr440   2.393       .  S
O408        C416   1.283   1_655  A
O409       Zr411   2.395   1_545  S
O409        C415   1.286       .  A
O410       Zr411   2.410       .  S
O410        C414   1.286   1_556  A
Zr411       O412   2.356   1_565  S
Zr411       O413   2.332       .  S
Zr411       O421   2.348   1_566  S
Zr411       O419   2.334   1_455  S
O412       Zr438   2.344   1_455  S
O412       Zr441   2.342   1_556  S
O413       Zr439   2.335   1_556  S
O413       Zr440   2.340   1_455  S
C414       C2117   1.471       .  S
C415       C1037   1.485       .  S
C416        C638   1.493       .  S
C417       C1982   1.476       .  S
H418        O419   0.965       .  S
O419       Zr438   2.341   1_565  S
O419       Zr440   2.329       .  S
H420        O421   0.966       .  S
O421       Zr439   2.336   1_545  S
O421       Zr441   2.350       .  S
O422       Zr438   2.478       .  S
O422        C445   1.299       .  A
O423       Zr439   2.445   1_655  S
O423        C446   1.292       .  A
O424       Zr440   2.486       .  S
O424        C447   1.300       .  A
O425       Zr441   2.465   1_556  S
O425        C448   1.296       .  A
O426       Zr441   2.460       .  S
O426        C449   1.295       .  A
O427       Zr440   2.460   1_554  S
O427        C450   1.296       .  A
O428       Zr442   2.466   1_565  S
O428        C451   1.297       .  A
O429       Zr442   2.486       .  S
O429        C452   1.300       .  A
O430       Zr440   2.394       .  S
O430        C451   1.285   1_556  A
O431       Zr441   2.409       .  S
O431        C452   1.285   1_455  A
O432       Zr438   2.399       .  S
O432        C447   1.284   1_545  A
O433       Zr439   2.422   1_655  S
O433        C450   1.290       .  A
O434       Zr439   2.421   1_545  S
O434        C449   1.289       .  A
O435       Zr438   2.411       .  S
O435        C448   1.287   1_655  A
O436       Zr442   2.392       .  S
O436        C445   1.285   1_554  A
O437       Zr442   2.425       .  S
O437        C446   1.290   1_545  A
Zr438       O444   2.344       .  S
Zr438       O456   2.333   1_556  S
Zr439       O443   2.338   1_465  S
Zr439       O454   2.344   1_455  S
Zr440       O444   2.335   1_565  S
Zr440       O454   2.345   1_556  S
Zr441       O443   2.334   1_455  S
Zr441       O456   2.329   1_455  S
Zr442       O443   2.327       .  S
Zr442       O444   2.350   1_554  S
Zr442       O456   2.340       .  S
Zr442       O454   2.341   1_545  S
C445       C1925   1.480       .  S
C446       C1214   1.465       .  S
C447       C1190   1.474       .  S
C448        C614   1.481       .  S
C449       C1061   1.479       .  S
C450        C518   1.482       .  S
C451       C2078   1.477       .  S
C452        C542   1.477       .  S
H453        O454   0.966       .  S
H455        O456   0.964       .  S
C457        C458   1.405       .  A
C457        C462   1.405       .  A
C457        H467   1.084       .  S
C458        C463   1.478       .  S
C458        C459   1.409       .  A
C459        C460   1.394       .  A
C459        S464   1.805       .  S
C460        C461   1.404       .  A
C460        H465   1.085       .  S
C461        C462   1.414       .  A
C462        S466   1.804       .  S
C463        C468   1.401       .  A
C463        C472   1.394       .  A
S464        H480   1.404       .  S
S466        H477   1.406       .  S
C468        C469   1.398       .  A
C468        S473   1.809       .  S
C469        C470   1.419       .  A
C469        H474   1.074       .  S
C470        C471   1.440       .  A
C471        C472   1.405       .  A
C471        S475   1.812       .  S
C472        H476   1.083       .  S
S473        H478   1.407       .  S
S475        H479   1.406       .  S
C481        C482   1.403       .  A
C481        C486   1.402       .  A
C481        H491   1.083       .  S
C482        C487   1.488       .  S
C482        C483   1.413       .  A
C483        C484   1.404       .  A
C483        S488   1.802       .  S
C484        C485   1.405       .  A
C484        H489   1.084       .  S
C485        C486   1.412       .  A
C486        S490   1.808       .  S
C487        C492   1.398       .  A
C487        C496   1.399       .  A
S488        H504   1.407       .  S
S490        H501   1.406       .  S
C492        C493   1.399       .  A
C492        S497   1.810       .  S
C493        C494   1.430       .  A
C493        H498   1.076       .  S
C494        C495   1.434       .  A
C495        C496   1.411       .  A
C495        S499   1.803       .  S
C496        H500   1.082       .  S
S497        H502   1.406       .  S
S499        H503   1.406       .  S
C505        C506   1.391       .  A
C505        C510   1.402       .  A
C505        H515   1.084       .  S
C506        C511   1.476       .  S
C506        C507   1.401       .  A
C507        C508   1.399       .  A
C507        S512   1.805       .  S
C508        C509   1.426       .  A
C508        H513   1.083       .  S
C509        C510   1.448       .  A
C510        S514   1.816       .  S
C511        C516   1.410       .  A
C511        C520   1.394   1_655  A
S512        H528   1.404       .  S
S514        H525   1.407       .  S
C516        C517   1.409       .  A
C516        S521   1.804       .  S
C517        C518   1.407       .  A
C517        H522   1.083       .  S
C518        C519   1.419   1_655  A
C519        C520   1.391       .  A
C519        S523   1.800       .  S
C520        H524   1.085       .  S
S521        H526   1.407       .  S
S523        H527   1.399       .  S
C529        C530   1.395       .  A
C529        C534   1.404       .  A
C529        H539   1.083       .  S
C530        C535   1.485       .  S
C530        C531   1.407   1_655  A
C531        C532   1.399       .  A
C531        S536   1.806       .  S
C532        C533   1.418   1_455  A
C532        H537   1.075       .  S
C533        C534   1.442       .  A
C534        S538   1.814       .  S
C535        C540   1.410       .  A
C535        C544   1.400       .  A
S536        H552   1.405       .  S
S538        H549   1.407       .  S
C540        C541   1.406       .  A
C540        S545   1.806       .  S
C541        C542   1.405       .  A
C541        H546   1.076       .  S
C542        C543   1.414       .  A
C543        C544   1.397       .  A
C543        S547   1.800       .  S
C544        H548   1.084       .  S
S545        H550   1.407       .  S
S547        H551   1.399       .  S
C553        C554   1.407       .  A
C553        C558   1.409       .  A
C553        H563   1.084       .  S
C554        C559   1.482       .  S
C554        C555   1.407       .  A
C555        C556   1.392       .  A
C555        S560   1.807       .  S
C556        C557   1.410       .  A
C556        H561   1.084       .  S
C557        C558   1.416       .  A
C558        S562   1.797       .  S
C559        C564   1.401       .  A
C559        C568   1.390       .  A
S560        H576   1.404       .  S
S562        H573   1.406       .  S
C564        C565   1.403       .  A
C564        S569   1.806       .  S
C565        C566   1.422       .  A
C565        H570   1.081       .  S
C566        C567   1.450       .  A
C567        C568   1.403       .  A
C567        S571   1.816       .  S
C568        H572   1.084       .  S
S569        H574   1.407       .  S
S571        H575   1.408       .  S
C577        C578   1.401       .  A
C577        C582   1.397       .  A
C577        H587   1.084       .  S
C578        C583   1.470       .  S
C578        C579   1.410       .  A
C579        C580   1.395       .  A
C579        S584   1.805       .  S
C580        C581   1.403       .  A
C580        H585   1.085       .  S
C581        C582   1.413       .  A
C582        S586   1.807       .  S
C583        C588   1.401       .  A
C583        C592   1.390       .  A
S584        H600   1.406       .  S
S586        H597   1.399       .  S
C588        C589   1.398       .  A
C588        S593   1.806       .  S
C589        C590   1.416       .  A
C589        H594   1.076       .  S
C590        C591   1.442       .  A
C591        C592   1.398       .  A
C591        S595   1.813       .  S
C592        H596   1.084       .  S
S593        H598   1.407       .  S
S595        H599   1.407       .  S
C601        C602   1.393       .  A
C601        C606   1.405       .  A
C601        H611   1.083       .  S
C602        C607   1.475       .  S
C602        C603   1.403       .  A
C603        C604   1.395       .  A
C603        S608   1.806       .  S
C604        C605   1.421       .  A
C604        H609   1.076       .  S
C605        C606   1.441       .  A
C606        S610   1.810   1_455  S
C607        C612   1.409       .  A
C607        C616   1.394   1_455  A
S608        H624   1.405       .  S
S610        H621   1.407   1_655  S
C612        C613   1.409       .  A
C612        S617   1.804       .  S
C613        C614   1.407       .  A
C613        H618   1.083       .  S
C614        C615   1.420   1_455  A
C615        C616   1.390       .  A
C615        S619   1.806       .  S
C616        H620   1.085       .  S
S617        H622   1.407       .  S
S619        H623   1.400       .  S
C625        C626   1.394       .  A
C625        C630   1.402       .  A
C625        H635   1.084       .  S
C626        C631   1.484       .  S
C626        C627   1.407   1_455  A
C627        C628   1.396       .  A
C627        S632   1.805       .  S
C628        C629   1.417   1_655  A
C628        H633   1.076       .  S
C629        C630   1.446       .  A
C630        S634   1.807       .  S
C631        C636   1.413       .  A
C631        C640   1.393   1_455  A
S632        H648   1.407       .  S
S634        H645   1.397       .  S
C636        C637   1.413       .  A
C636        S641   1.805       .  S
C637        C638   1.406       .  A
C637        H642   1.080       .  S
C638        C639   1.425   1_455  A
C639        C640   1.390       .  A
C639        S643   1.801       .  S
C640        H644   1.085       .  S
S641        H646   1.406       .  S
S643        H647   1.394       .  S
C649        C650   1.395       .  A
C649        C654   1.403       .  A
C649        H659   1.083       .  S
C650        C655   1.467       .  S
C650        C651   1.398       .  A
C651        C652   1.385       .  A
C651        S656   1.808       .  S
C652        C653   1.422       .  A
C652        H657   1.072   1_455  S
C653        C654   1.435       .  A
C654        S658   1.810       .  S
C655        C660   1.411       .  A
C655        C664   1.398       .  A
S656        H672   1.406       .  S
S658        H669   1.406       .  S
C660        C661   1.398       .  A
C660        S665   1.809       .  S
C661        C662   1.401       .  A
C661        H666   1.083       .  S
C662        C663   1.411       .  A
C663        C664   1.392       .  A
C663        S667   1.802       .  S
C664        H668   1.084       .  S
S665        H670   1.407       .  S
S667        H671   1.407       .  S
C673        C674   1.400       .  A
C673        C678   1.403       .  A
C673        H683   1.083       .  S
C674        C679   1.489       .  S
C674        C675   1.413       .  A
C675        C676   1.403       .  A
C675        S680   1.805       .  S
C676        C677   1.408       .  A
C676        H681   1.083       .  S
C677        C678   1.423       .  A
C678        S682   1.812       .  S
C679        C684   1.404       .  A
C679        C688   1.396       .  A
S680        H696   1.407       .  S
S682        H693   1.407       .  S
C684        C685   1.402       .  A
C684        S689   1.809       .  S
C685        C686   1.418       .  A
C685        H690   1.073       .  S
C686        C687   1.438       .  A
C687        C688   1.405       .  A
C687        S691   1.811       .  S
C688        H692   1.083       .  S
S689        H694   1.406       .  S
S691        H695   1.406       .  S
C697        C698   1.396       .  A
C697        C702   1.407       .  A
C697        H707   1.083       .  S
C698        C703   1.493       .  S
C698        C699   1.408       .  A
C699        C700   1.403       .  A
C699        S704   1.804       .  S
C700        C701   1.421       .  A
C700        H705   1.079       .  S
C701        C702   1.436       .  A
C702        S706   1.803       .  S
C703        C708   1.412       .  A
C703        C712   1.405       .  A
S704        H720   1.406       .  S
S706        H717   1.406       .  S
C708        C709   1.407       .  A
C708        S713   1.807       .  S
C709        C710   1.408       .  A
C709        H714   1.083       .  S
C710        C711   1.416       .  A
C711        C712   1.403       .  A
C711        S715   1.803       .  S
C712        H716   1.084       .  S
S713        H718   1.407       .  S
S715        H719   1.407       .  S
C721        C722   1.401       .  A
C721        C726   1.399       .  A
C721        H731   1.084       .  S
C722        C727   1.481       .  S
C722        C723   1.409       .  A
C723        C724   1.396       .  A
C723        S728   1.805       .  S
C724        C725   1.411       .  A
C724        H729   1.083       .  S
C725        C726   1.423       .  A
C726        S730   1.802       .  S
C727        C732   1.401       .  A
C727        C736   1.391       .  A
S728        H744   1.406       .  S
S730        H741   1.408       .  S
C732        C733   1.401       .  A
C732        S737   1.807       .  S
C733        C734   1.423       .  A
C733        H738   1.082       .  S
C734        C735   1.445       .  A
C735        C736   1.397       .  A
C735        S739   1.811       .  S
C736        H740   1.084       .  S
S737        H742   1.407       .  S
S739        H743   1.408       .  S
C745        C746   1.388       .  A
C745        C750   1.396       .  A
C745        H755   1.084       .  S
C746        C751   1.493       .  S
C746        C747   1.409       .  A
C747        C748   1.409       .  A
C747        S752   1.802       .  S
C748        C749   1.423       .  A
C748        H753   1.083       .  S
C749        C750   1.448       .  A
C750        S754   1.809       .  S
C751        C756   1.415       .  A
C751        C760   1.404       .  A
S752        H768   1.406       .  S
S754        H765   1.408       .  S
C756        C757   1.405       .  A
C756        S761   1.807       .  S
C757        C758   1.402       .  A
C757        H762   1.083       .  S
C758        C759   1.416       .  A
C759        C760   1.403       .  A
C759        S763   1.806       .  S
C760        H764   1.084       .  S
S761        H766   1.407       .  S
S763        H767   1.406       .  S
C769        C770   1.402       .  A
C769        C774   1.401       .  A
C769        H779   1.084       .  S
C770        C775   1.483       .  S
C770        C771   1.409       .  A
C771        C772   1.399       .  A
C771        S776   1.805       .  S
C772        C773   1.410       .  A
C772        H777   1.082       .  S
C773        C774   1.419       .  A
C774        S778   1.802       .  S
C775        C780   1.401       .  A
C775        C784   1.393       .  A
S776        H792   1.406       .  S
S778        H789   1.408       .  S
C780        C781   1.402       .  A
C780        S785   1.806       .  S
C781        C782   1.420       .  A
C781        H786   1.078       .  S
C782        C783   1.445       .  A
C783        C784   1.405       .  A
C783        S787   1.815       .  S
C784        H788   1.083       .  S
S785        H790   1.407       .  S
S787        H791   1.407       .  S
C793        C794   1.408       .  A
C793        C798   1.409       .  A
C793        H803   1.084       .  S
C794        C799   1.498       .  S
C794        C795   1.413       .  A
C795        C796   1.403       .  A
C795        S800   1.805       .  S
C796        C797   1.409       .  A
C796        H801   1.084       .  S
C797        C798   1.416       .  A
C798        S802   1.803       .  S
C799        C804   1.407       .  A
C799        C808   1.396       .  A
S800        H816   1.406       .  S
S802        H813   1.407       .  S
C804        C805   1.411       .  A
C804        S809   1.807       .  S
C805        C806   1.422       .  A
C805        H810   1.075       .  S
C806        C807   1.439       .  A
C807        C808   1.407       .  A
C807        S811   1.812       .  S
C808        H812   1.082       .  S
S809        H814   1.407       .  S
S811        H815   1.406       .  S
C817        C818   1.395       .  A
C817        C822   1.398       .  A
C817        H827   1.083       .  S
C818        C823   1.467       .  S
C818        C819   1.408       .  A
C819        C820   1.394       .  A
C819        S824   1.806       .  S
C820        C821   1.408       .  A
C820        H825   1.083       .  S
C821        C822   1.428       .  A
C822        S826   1.813       .  S
C823        C828   1.399       .  A
C823        C832   1.395       .  A
S824        H840   1.403       .  S
S826        H837   1.407       .  S
C828        C829   1.389       .  A
C828        S833   1.811       .  S
C829        C830   1.418       .  A
C829        H834   1.075       .  S
C830        C831   1.437       .  A
C831        C832   1.405       .  A
C831        S835   1.811       .  S
C832        H836   1.083       .  S
S833        H838   1.406       .  S
S835        H839   1.407       .  S
C841        C842   1.399       .  A
C841        C846   1.398       .  A
C841        H851   1.084       .  S
C842        C847   1.475       .  S
C842        C843   1.413       .  A
C843        C844   1.397       .  A
C843        S848   1.806       .  S
C844        C845   1.402       .  A
C844        H849   1.084       .  S
C845        C846   1.417       .  A
C846        S850   1.803       .  S
C847        C852   1.395       .  A
C847        C856   1.396       .  A
S848        H864   1.405       .  S
S850        H861   1.402       .  S
C852        C853   1.392       .  A
C852        S857   1.811       .  S
C853        C854   1.425       .  A
C853        H858   1.068       .  S
C854        C855   1.442       .  A
C855        C856   1.405       .  A
C855        S859   1.811       .  S
C856        H860   1.084       .  S
S857        H862   1.407       .  S
S859        H863   1.392       .  S
C865        C866   1.394       .  A
C865        C870   1.396       .  A
C865        H875   1.084       .  S
C866        C871   1.486       .  S
C866        C867   1.409       .  A
C867        C868   1.403       .  A
C867        S872   1.805       .  S
C868        C869   1.418       .  A
C868        H873   1.079       .  S
C869        C870   1.438       .  A
C870        S874   1.811       .  S
C871        C876   1.408       .  A
C871        C880   1.401       .  A
S872        H888   1.405       .  S
S874        H885   1.407       .  S
C876        C877   1.402       .  A
C876        S881   1.809       .  S
C877        C878   1.412       .  A
C877        H882   1.082       .  S
C878        C879   1.424       .  A
C879        C880   1.402       .  A
C879        S883   1.813       .  S
C880        H884   1.083       .  S
S881        H886   1.406       .  S
S883        H887   1.406       .  S
C889        C890   1.399       .  A
C889        C894   1.399       .  A
C889        H899   1.084       .  S
C890        C895   1.477       .  S
C890        C891   1.411       .  A
C891        C892   1.398       .  A
C891        S896   1.802       .  S
C892        C893   1.405       .  A
C892        H897   1.083       .  S
C893        C894   1.415       .  A
C894        S898   1.797       .  S
C895        C900   1.399       .  A
C895        C904   1.400       .  A
S896        H912   1.406       .  S
S898        H909   1.407       .  S
C900        C901   1.391       .  A
C900        S905   1.810       .  S
C901        C902   1.417       .  A
C901        H906   1.071       .  S
C902        C903   1.435       .  A
C903        C904   1.412       .  A
C903        S907   1.810       .  S
C904        H908   1.083       .  S
S905        H910   1.407       .  S
S907        H911   1.407       .  S
C913        C914   1.400       .  A
C913        C918   1.408       .  A
C913        H923   1.082       .  S
C914        C919   1.501       .  S
C914        C915   1.415       .  A
C915        C916   1.404       .  A
C915        S920   1.803       .  S
C916        C917   1.416       .  A
C916        H921   1.076       .  S
C917        C918   1.439       .  A
C918        S922   1.811       .  S
C919        C924   1.420       .  A
C919        C928   1.404       .  A
S920        H936   1.407       .  S
S922        H933   1.406       .  S
C924        C925   1.404       .  A
C924        S929   1.806       .  S
C925        C926   1.401       .  A
C925        H930   1.083       .  S
C926        C927   1.419       .  A
C927        C928   1.406       .  A
C927        S931   1.810       .  S
C928        H932   1.082       .  S
S929        H934   1.406       .  S
S931        H935   1.406       .  S
C937        C938   1.399       .  A
C937        C942   1.398       .  A
C937        H947   1.084       .  S
C938        C943   1.480       .  S
C938        C939   1.412       .  A
C939        C940   1.403       .  A
C939        S944   1.805       .  S
C940        C941   1.408       .  A
C940        H945   1.084       .  S
C941        C942   1.420       .  A
C942        S946   1.802       .  S
C943        C948   1.401       .  A
C943        C952   1.390       .  A
S944        H960   1.404       .  S
S946        H957   1.408       .  S
C948        C949   1.406       .  A
C948        S953   1.806       .  S
C949        C950   1.422       .  A
C949        H954   1.075       .  S
C950        C951   1.440       .  A
C951        C952   1.399       .  A
C951        S955   1.810       .  S
C952        H956   1.083       .  S
S953        H958   1.407       .  S
S955        H959   1.407       .  S
C961        C962   1.401       .  A
C961        C966   1.409       .  A
C961        H971   1.083       .  S
C962        C967   1.485       .  S
C962        C963   1.408       .  A
C963        C964   1.399       .  A
C963        S968   1.804       .  S
C964        C965   1.416       .  A
C964        H969   1.079       .  S
C965        C966   1.428       .  A
C966        S970   1.809       .  S
C967        C972   1.407       .  A
C967        C976   1.404       .  A
S968        H984   1.406       .  S
S970        H981   1.407       .  S
C972        C973   1.403       .  A
C972        S977   1.807       .  S
C973        C974   1.410       .  A
C973        H978   1.082       .  S
C974        C975   1.417       .  A
C975        C976   1.404       .  A
C975        S979   1.803       .  S
C976        H980   1.084       .  S
S977        H982   1.406       .  S
S979        H983   1.407       .  S
C985        C986   1.394       .  A
C985        C990   1.405       .  A
C985        H995   1.084       .  S
C986        C991   1.485       .  S
C986        C987   1.403       .  A
C987        C988   1.400       .  A
C987        S992   1.805       .  S
C988        C989   1.425       .  A
C988        H993   1.077       .  S
C989        C990   1.441       .  A
C990        S994   1.806   1_655  S
C991        C996   1.409       .  A
C991       C1000   1.400       .  A
S992       H1008   1.405       .  S
S994       H1005   1.408       .  S
C996        C997   1.405       .  A
C996       S1001   1.806       .  S
C997        C998   1.407       .  A
C997       H1002   1.083       .  S
C998        C999   1.421       .  A
C999       C1000   1.401       .  A
C999       S1003   1.805       .  S
C1000      H1004   1.084       .  S
S1001      H1006   1.407       .  S
S1003      H1007   1.406       .  S
C1009      C1010   1.401       .  A
C1009      C1014   1.391       .  A
C1009      H1019   1.084       .  S
C1010      C1015   1.469       .  S
C1010      C1011   1.413       .  A
C1011      C1012   1.398       .  A
C1011      S1016   1.806       .  S
C1012      C1013   1.401       .  A
C1012      H1017   1.084       .  S
C1013      C1014   1.408       .  A
C1014      S1018   1.804       .  S
C1015      C1020   1.397       .  A
C1015      C1024   1.390       .  A
S1016      H1032   1.405       .  S
S1018      H1029   1.405       .  S
C1020      C1021   1.395       .  A
C1020      S1025   1.808       .  S
C1021      C1022   1.424       .  A
C1021      H1026   1.072       .  S
C1022      C1023   1.439       .  A
C1023      C1024   1.400       .  A
C1023      S1027   1.805       .  S
C1024      H1028   1.083       .  S
S1025      H1030   1.407       .  S
S1027      H1031   1.406       .  S
C1033      C1034   1.405       .  A
C1033      C1038   1.408       .  A
C1033      H1043   1.083       .  S
C1034      C1039   1.474       .  S
C1034      C1035   1.405       .  A
C1035      C1036   1.388       .  A
C1035      S1040   1.806   1_545  S
C1036      C1037   1.409       .  A
C1036      H1041   1.084   1_545  S
C1037      C1038   1.414       .  A
C1038      S1042   1.805       .  S
C1039      C1044   1.400       .  A
C1039      C1048   1.391       .  A
S1040      H1056   1.406       .  S
S1042      H1053   1.407       .  S
C1044      C1045   1.399       .  A
C1044      S1049   1.808   1_545  S
C1045      C1046   1.423       .  A
C1045      H1050   1.076   1_545  S
C1046      C1047   1.438       .  A
C1047      C1048   1.400       .  A
C1047      S1051   1.805       .  S
C1048      H1052   1.084       .  S
S1049      H1054   1.407       .  S
S1051      H1055   1.407       .  S
C1057      C1058   1.400       .  A
C1057      C1062   1.395       .  A
C1057      H1067   1.084   1_545  S
C1058      C1063   1.482       .  S
C1058      C1059   1.414       .  A
C1059      C1060   1.406       .  A
C1059      S1064   1.803       .  S
C1060      C1061   1.406       .  A
C1060      H1065   1.084       .  S
C1061      C1062   1.412       .  A
C1062      S1066   1.802   1_545  S
C1063      C1068   1.404       .  A
C1063      C1072   1.391       .  A
S1064      H1080   1.406       .  S
S1066      H1077   1.407   1_565  S
C1068      C1069   1.405       .  A
C1068      S1073   1.806   1_545  S
C1069      C1070   1.418       .  A
C1069      H1074   1.075   1_545  S
C1070      C1071   1.439       .  A
C1071      C1072   1.403       .  A
C1071      S1075   1.805       .  S
C1072      H1076   1.083       .  S
S1073      H1078   1.407       .  S
S1075      H1079   1.406       .  S
C1081      C1082   1.393       .  A
C1081      C1086   1.401       .  A
C1081      H1091   1.083       .  S
C1082      C1087   1.483       .  S
C1082      C1083   1.408       .  A
C1083      C1084   1.403       .  A
C1083      S1088   1.806       .  S
C1084      C1085   1.420       .  A
C1084      H1089   1.078       .  S
C1085      C1086   1.438       .  A
C1086      S1090   1.810       .  S
C1087      C1092   1.409       .  A
C1087      C1096   1.401       .  A
S1088      H1104   1.404       .  S
S1090      H1101   1.407       .  S
C1092      C1093   1.406       .  A
C1092      S1097   1.806       .  S
C1093      C1094   1.408       .  A
C1093      H1098   1.083       .  S
C1094      C1095   1.416       .  A
C1095      C1096   1.399       .  A
C1095      S1099   1.803       .  S
C1096      H1100   1.084       .  S
S1097      H1102   1.407       .  S
S1099      H1103   1.407       .  S
C1105      C1106   1.392       .  A
C1105      C1110   1.401       .  A
C1105      H1115   1.083       .  S
C1106      C1111   1.469       .  S
C1106      C1107   1.404       .  A
C1107      C1108   1.392       .  A
C1107      S1112   1.808       .  S
C1108      C1109   1.418       .  A
C1108      H1113   1.078       .  S
C1109      C1110   1.439       .  A
C1110      S1114   1.810       .  S
C1111      C1116   1.405       .  A
C1111      C1120   1.404       .  A
S1112      H1128   1.404       .  S
S1114      H1125   1.407       .  S
C1116      C1117   1.394       .  A
C1116      S1121   1.807       .  S
C1117      C1118   1.402       .  A
C1117      H1122   1.082       .  S
C1118      C1119   1.411       .  A
C1119      C1120   1.399       .  A
C1119      S1123   1.809       .  S
C1120      H1124   1.084       .  S
S1121      H1126   1.407       .  S
S1123      H1127   1.402       .  S
C1129      C1130   1.406       .  A
C1129      C1134   1.406       .  A
C1129      H1139   1.084       .  S
C1130      C1135   1.490       .  S
C1130      C1131   1.411       .  A
C1131      C1132   1.402       .  A
C1131      S1136   1.803       .  S
C1132      C1133   1.408       .  A
C1132      H1137   1.084       .  S
C1133      C1134   1.417       .  A
C1134      S1138   1.804       .  S
C1135      C1140   1.401       .  A
C1135      C1144   1.395       .  A
S1136      H1152   1.406       .  S
S1138      H1149   1.407       .  S
C1140      C1141   1.404       .  A
C1140      S1145   1.806       .  S
C1141      C1142   1.426       .  A
C1141      H1146   1.082       .  S
C1142      C1143   1.446       .  A
C1143      C1144   1.407       .  A
C1143      S1147   1.804       .  S
C1144      H1148   1.085       .  S
S1145      H1150   1.407       .  S
S1147      H1151   1.401       .  S
C1153      C1154   1.404       .  A
C1153      C1158   1.400       .  A
C1153      H1163   1.084       .  S
C1154      C1159   1.476       .  S
C1154      C1155   1.410       .  A
C1155      C1156   1.396       .  A
C1155      S1160   1.804       .  S
C1156      C1157   1.404       .  A
C1156      H1161   1.084       .  S
C1157      C1158   1.412       .  A
C1158      S1162   1.800       .  S
C1159      C1164   1.401       .  A
C1159      C1168   1.391       .  A
S1160      H1176   1.405       .  S
S1162      H1173   1.406       .  S
C1164      C1165   1.400       .  A
C1164      S1169   1.807       .  S
C1165      C1166   1.420       .  A
C1165      H1170   1.075       .  S
C1166      C1167   1.441       .  A
C1167      C1168   1.402       .  A
C1167      S1171   1.804       .  S
C1168      H1172   1.084       .  S
S1169      H1174   1.407       .  S
S1171      H1175   1.408       .  S
C1177      C1178   1.392       .  A
C1177      C1182   1.402       .  A
C1177      H1187   1.082       .  S
C1178      C1183   1.485       .  S
C1178      C1179   1.411   1_565  A
C1179      C1180   1.401       .  A
C1179      S1184   1.804       .  S
C1180      C1181   1.415   1_545  A
C1180      H1185   1.076       .  S
C1181      C1182   1.442       .  A
C1182      S1186   1.812       .  S
C1183      C1188   1.416       .  A
C1183      C1192   1.397       .  A
S1184      H1200   1.406       .  S
S1186      H1197   1.406       .  S
C1188      C1189   1.408       .  A
C1188      S1193   1.805       .  S
C1189      C1190   1.401       .  A
C1189      H1194   1.083       .  S
C1190      C1191   1.415       .  A
C1191      C1192   1.398       .  A
C1191      S1195   1.805       .  S
C1192      H1196   1.083       .  S
S1193      H1198   1.407       .  S
S1195      H1199   1.407       .  S
C1201      C1202   1.394       .  A
C1201      C1206   1.399       .  A
C1201      H1211   1.083       .  S
C1202      C1207   1.481       .  S
C1202      C1203   1.405   1_565  A
C1203      C1204   1.396       .  A
C1203      S1208   1.805       .  S
C1204      C1205   1.420       .  A
C1204      H1209   1.077       .  S
C1205      C1206   1.443   1_545  A
C1206      S1210   1.814       .  S
C1207      C1212   1.416       .  A
C1207      C1216   1.399   1_565  A
S1208      H1224   1.406   1_545  S
S1210      H1221   1.407       .  S
C1212      C1213   1.405       .  A
C1212      S1217   1.807       .  S
C1213      C1214   1.400       .  A
C1213      H1218   1.083       .  S
C1214      C1215   1.408   1_565  A
C1215      C1216   1.392       .  A
C1215      S1219   1.795       .  S
C1216      H1220   1.084       .  S
S1217      H1222   1.407       .  S
S1219      H1223   1.403       .  S
C1225      C1226   1.394       .  A
C1225      C1230   1.404       .  A
C1225      H1235   1.083       .  S
C1226      C1231   1.491       .  S
C1226      C1227   1.409       .  A
C1227      C1228   1.406       .  A
C1227      S1232   1.804       .  S
C1228      C1229   1.415       .  A
C1228      H1233   1.076       .  S
C1229      C1230   1.445       .  A
C1230      S1234   1.818       .  S
C1231      C1236   1.409       .  A
C1231      C1240   1.400       .  A
S1232      H1248   1.405       .  S
S1234      H1245   1.406       .  S
C1236      C1237   1.409       .  A
C1236      S1241   1.806       .  S
C1237      C1238   1.412       .  A
C1237      H1242   1.082       .  S
C1238      C1239   1.427       .  A
C1239      C1240   1.401       .  A
C1239      S1243   1.803       .  S
C1240      H1244   1.084       .  S
S1241      H1246   1.406       .  S
S1243      H1247   1.407       .  S
C1249      C1250   1.396       .  A
C1249      C1254   1.405       .  A
C1249      H1259   1.083       .  S
C1250      C1255   1.478       .  S
C1250      C1251   1.404       .  A
C1251      C1252   1.395       .  A
C1251      S1256   1.806       .  S
C1252      C1253   1.417       .  A
C1252      H1257   1.073       .  S
C1253      C1254   1.441       .  A
C1254      S1258   1.811       .  S
C1255      C1260   1.408       .  A
C1255      C1264   1.407       .  A
S1256      H1272   1.405       .  S
S1258      H1269   1.407       .  S
C1260      C1261   1.394       .  A
C1260      S1265   1.810       .  S
C1261      C1262   1.404       .  A
C1261      H1266   1.083       .  S
C1262      C1263   1.410       .  A
C1263      C1264   1.404       .  A
C1263      S1267   1.804       .  S
C1264      H1268   1.084       .  S
S1265      H1270   1.405       .  S
S1267      H1271   1.406       .  S
C1273      C1274   1.403       .  A
C1273      C1278   1.398       .  A
C1273      H1283   1.084       .  S
C1274      C1279   1.471       .  S
C1274      C1275   1.410       .  A
C1275      C1276   1.396       .  A
C1275      S1280   1.807       .  S
C1276      C1277   1.404       .  A
C1276      H1281   1.084       .  S
C1277      C1278   1.411       .  A
C1278      S1282   1.803       .  S
C1279      C1284   1.403       .  A
C1279      C1288   1.392       .  A
S1280      H1296   1.404       .  S
S1282      H1293   1.407       .  S
C1284      C1285   1.397       .  A
C1284      S1289   1.806       .  S
C1285      C1286   1.423       .  A
C1285      H1290   1.084       .  S
C1286      C1287   1.445       .  A
C1287      C1288   1.397       .  A
C1287      S1291   1.814       .  S
C1288      H1292   1.085       .  S
S1289      H1294   1.404       .  S
S1291      H1295   1.397       .  S
C1297      C1298   1.394       .  A
C1297      C1302   1.405       .  A
C1297      H1307   1.083       .  S
C1298      C1303   1.483       .  S
C1298      C1299   1.402       .  A
C1299      C1300   1.397       .  A
C1299      S1304   1.805       .  S
C1300      C1301   1.427       .  A
C1300      H1305   1.083       .  S
C1301      C1302   1.447       .  A
C1302      S1306   1.815       .  S
C1303      C1308   1.409       .  A
C1303      C1312   1.406       .  A
S1304      H1320   1.406       .  S
S1306      H1317   1.406       .  S
C1308      C1309   1.400       .  A
C1308      S1313   1.805       .  S
C1309      C1310   1.403       .  A
C1309      H1314   1.083       .  S
C1310      C1311   1.411       .  A
C1311      C1312   1.402       .  A
C1311      S1315   1.805       .  S
C1312      H1316   1.084       .  S
S1313      H1318   1.407       .  S
S1315      H1319   1.404       .  S
C1321      C1322   1.401       .  A
C1321      C1326   1.397       .  A
C1321      H1331   1.084       .  S
C1322      C1327   1.477       .  S
C1322      C1323   1.414       .  A
C1323      C1324   1.400       .  A
C1323      S1328   1.806   1_655  S
C1324      C1325   1.401       .  A
C1324      H1329   1.083   1_655  S
C1325      C1326   1.413       .  A
C1326      S1330   1.807       .  S
C1327      C1332   1.399       .  A
C1327      C1336   1.392   1_655  A
S1328      H1344   1.404   1_455  S
S1330      H1341   1.404       .  S
C1332      C1333   1.400       .  A
C1332      S1337   1.808       .  S
C1333      C1334   1.419       .  A
C1333      H1338   1.072       .  S
C1334      C1335   1.442   1_655  A
C1335      C1336   1.403       .  A
C1335      S1339   1.811       .  S
C1336      H1340   1.084       .  S
S1337      H1342   1.407       .  S
S1339      H1343   1.408       .  S
C1345      C1346   1.404   1_455  A
C1345      C1350   1.405       .  A
C1345      H1355   1.084       .  S
C1346      C1351   1.493       .  S
C1346      C1347   1.412       .  A
C1347      C1348   1.401       .  A
C1347      S1352   1.806       .  S
C1348      C1349   1.410       .  A
C1348      H1353   1.081       .  S
C1349      C1350   1.422   1_655  A
C1350      S1354   1.801       .  S
C1351      C1356   1.406       .  A
C1351      C1360   1.398   1_655  A
S1352      H1368   1.406       .  S
S1354      H1365   1.407       .  S
C1356      C1357   1.403       .  A
C1356      S1361   1.808       .  S
C1357      C1358   1.418       .  A
C1357      H1362   1.080       .  S
C1358      C1359   1.439   1_655  A
C1359      C1360   1.408       .  A
C1359      S1363   1.812       .  S
C1360      H1364   1.083       .  S
S1361      H1366   1.406       .  S
S1363      H1367   1.407       .  S
C1369      C1370   1.398       .  A
C1369      C1374   1.402       .  A
C1369      H1379   1.083       .  S
C1370      C1375   1.483       .  S
C1370      C1371   1.411       .  A
C1371      C1372   1.401       .  A
C1371      S1376   1.806       .  S
C1372      C1373   1.410       .  A
C1372      H1377   1.083       .  S
C1373      C1374   1.425       .  A
C1374      S1378   1.810       .  S
C1375      C1380   1.399       .  A
C1375      C1384   1.392       .  A
S1376      H1392   1.405       .  S
S1378      H1389   1.407       .  S
C1380      C1381   1.402       .  A
C1380      S1385   1.806       .  S
C1381      C1382   1.425       .  A
C1381      H1386   1.082       .  S
C1382      C1383   1.447       .  A
C1383      C1384   1.403       .  A
C1383      S1387   1.809       .  S
C1384      H1388   1.084       .  S
S1385      H1390   1.407       .  S
S1387      H1391   1.408       .  S
C1393      C1394   1.392       .  A
C1393      C1398   1.399       .  A
C1393      H1403   1.083       .  S
C1394      C1399   1.481       .  S
C1394      C1395   1.406       .  A
C1395      C1396   1.401       .  A
C1395      S1400   1.805       .  S
C1396      C1397   1.420       .  A
C1396      H1401   1.078       .  S
C1397      C1398   1.439       .  A
C1398      S1402   1.804       .  S
C1399      C1404   1.412       .  A
C1399      C1408   1.400       .  A
S1400      H1416   1.406       .  S
S1402      H1413   1.407       .  S
C1404      C1405   1.404       .  A
C1404      S1409   1.807       .  S
C1405      C1406   1.405       .  A
C1405      H1410   1.083       .  S
C1406      C1407   1.412       .  A
C1407      C1408   1.395       .  A
C1407      S1411   1.796       .  S
C1408      H1412   1.084       .  S
S1409      H1414   1.407       .  S
S1411      H1415   1.408       .  S
C1417      C1418   1.407       .  A
C1417      C1422   1.405       .  A
C1417      H1427   1.084       .  S
C1418      C1423   1.487       .  S
C1418      C1419   1.410       .  A
C1419      C1420   1.401       .  A
C1419      S1424   1.804       .  S
C1420      C1421   1.409       .  A
C1420      H1425   1.084       .  S
C1421      C1422   1.415       .  A
C1422      S1426   1.803       .  S
C1423      C1428   1.397       .  A
C1423      C1432   1.402       .  A
S1424      H1440   1.405       .  S
S1426      H1437   1.408       .  S
C1428      C1429   1.395       .  A
C1428      S1433   1.810       .  S
C1429      C1430   1.422       .  A
C1429      H1434   1.068       .  S
C1430      C1431   1.443       .  A
C1431      C1432   1.414       .  A
C1431      S1435   1.809       .  S
C1432      H1436   1.084       .  S
S1433      H1438   1.407       .  S
S1435      H1439   1.391       .  S
C1441      C1442   1.395       .  A
C1441      C1446   1.398       .  A
C1441      H1451   1.083       .  S
C1442      C1447   1.467       .  S
C1442      C1443   1.412       .  A
C1443      C1444   1.394       .  A
C1443      S1448   1.807       .  S
C1444      C1445   1.403       .  A
C1444      H1449   1.084       .  S
C1445      C1446   1.420       .  A
C1446      S1450   1.809       .  S
C1447      C1452   1.398       .  A
C1447      C1456   1.395       .  A
S1448      H1464   1.401       .  S
S1450      H1461   1.407       .  S
C1452      C1453   1.392       .  A
C1452      S1457   1.809       .  S
C1453      C1454   1.419       .  A
C1453      H1458   1.076       .  S
C1454      C1455   1.434       .  A
C1455      C1456   1.403       .  A
C1455      S1459   1.809       .  S
C1456      H1460   1.083       .  S
S1457      H1462   1.407       .  S
S1459      H1463   1.406       .  S
C1465      C1466   1.402       .  A
C1465      C1470   1.393       .  A
C1465      H1475   1.084       .  S
C1466      C1471   1.458       .  S
C1466      C1467   1.403       .  A
C1467      C1468   1.389       .  A
C1467      S1472   1.807       .  S
C1468      C1469   1.411       .  A
C1468      H1473   1.082       .  S
C1469      C1470   1.413       .  A
C1470      S1474   1.797       .  S
C1471      C1476   1.395       .  A
C1471      C1480   1.395       .  A
S1472      H1488   1.403       .  S
S1474      H1485   1.407       .  S
C1476      C1477   1.384       .  A
C1476      S1481   1.812       .  S
C1477      C1478   1.424       .  A
C1477      H1482   1.078       .  S
C1478      C1479   1.438       .  A
C1479      C1480   1.405       .  A
C1479      S1483   1.809       .  S
C1480      H1484   1.083       .  S
S1481      H1486   1.406       .  S
S1483      H1487   1.407       .  S
C1489      C1490   1.405       .  A
C1489      C1494   1.406       .  A
C1489      H1499   1.083       .  S
C1490      C1495   1.487       .  S
C1490      C1491   1.411       .  A
C1491      C1492   1.401       .  A
C1491      S1496   1.803       .  S
C1492      C1493   1.406       .  A
C1492      H1497   1.084       .  S
C1493      C1494   1.415       .  A
C1494      S1498   1.810       .  S
C1495      C1500   1.399       .  A
C1495      C1504   1.402       .  A
S1496      H1512   1.405       .  S
S1498      H1509   1.407       .  S
C1500      C1501   1.396       .  A
C1500      S1505   1.811       .  S
C1501      C1502   1.430       .  A
C1501      H1506   1.077       .  S
C1502      C1503   1.429       .  A
C1503      C1504   1.413       .  A
C1503      S1507   1.802       .  S
C1504      H1508   1.082       .  S
S1505      H1510   1.406       .  S
S1507      H1511   1.406       .  S
C1513      C1514   1.396       .  A
C1513      C1518   1.402       .  A
C1513      H1523   1.083       .  S
C1514      C1519   1.484       .  S
C1514      C1515   1.407       .  A
C1515      C1516   1.399       .  A
C1515      S1520   1.804       .  S
C1516      C1517   1.419       .  A
C1516      H1521   1.079       .  S
C1517      C1518   1.436       .  A
C1518      S1522   1.808       .  S
C1519      C1524   1.409       .  A
C1519      C1528   1.404       .  A
S1520      H1536   1.406       .  S
S1522      H1533   1.407       .  S
C1524      C1525   1.403       .  A
C1524      S1529   1.807       .  S
C1525      C1526   1.407       .  A
C1525      H1530   1.083       .  S
C1526      C1527   1.412       .  A
C1527      C1528   1.399       .  A
C1527      S1531   1.801       .  S
C1528      H1532   1.084       .  S
S1529      H1534   1.407       .  S
S1531      H1535   1.406       .  S
C1537      C1538   1.398       .  A
C1537      C1542   1.398       .  A
C1537      H1547   1.084       .  S
C1538      C1543   1.480       .  S
C1538      C1539   1.412       .  A
C1539      C1540   1.401       .  A
C1539      S1544   1.805       .  S
C1540      C1541   1.407       .  A
C1540      H1545   1.080       .  S
C1541      C1542   1.421       .  A
C1542      S1546   1.803       .  S
C1543      C1548   1.397       .  A
C1543      C1552   1.399       .  A
S1544      H1560   1.406       .  S
S1546      H1557   1.407       .  S
C1548      C1549   1.390       .  A
C1548      S1553   1.810       .  S
C1549      C1550   1.425       .  A
C1549      H1554   1.080       .  S
C1550      C1551   1.441       .  A
C1551      C1552   1.413       .  A
C1551      S1555   1.809       .  S
C1552      H1556   1.083       .  S
S1553      H1558   1.407       .  S
S1555      H1559   1.407       .  S
C1561      C1562   1.397       .  A
C1561      C1566   1.404       .  A
C1561      H1571   1.083       .  S
C1562      C1567   1.484       .  S
C1562      C1563   1.405   1_655  A
C1563      C1564   1.398       .  A
C1563      S1568   1.804       .  S
C1564      C1565   1.421   1_455  A
C1564      H1569   1.083       .  S
C1565      C1566   1.441       .  A
C1566      S1570   1.816       .  S
C1567      C1572   1.410       .  A
C1567      C1576   1.397   1_655  A
S1568      H1584   1.407       .  S
S1570      H1581   1.406       .  S
C1572      C1573   1.405       .  A
C1572      S1577   1.807       .  S
C1573      C1574   1.407       .  A
C1573      H1578   1.083       .  S
C1574      C1575   1.424   1_655  A
C1575      C1576   1.396       .  A
C1575      S1579   1.802       .  S
C1576      H1580   1.084       .  S
S1577      H1582   1.407       .  S
S1579      H1583   1.399       .  S
C1585      C1586   1.404   1_455  A
C1585      C1590   1.401       .  A
C1585      H1595   1.084       .  S
C1586      C1591   1.487       .  S
C1586      C1587   1.412       .  A
C1587      C1588   1.403       .  A
C1587      S1592   1.805       .  S
C1588      C1589   1.409       .  A
C1588      H1593   1.084       .  S
C1589      C1590   1.416   1_655  A
C1590      S1594   1.803       .  S
C1591      C1596   1.404   1_655  A
C1591      C1600   1.395       .  A
S1592      H1608   1.405       .  S
S1594      H1605   1.408       .  S
C1596      C1597   1.405       .  A
C1596      S1601   1.808       .  S
C1597      C1598   1.422   1_455  A
C1597      H1602   1.074       .  S
C1598      C1599   1.436       .  A
C1599      C1600   1.404       .  A
C1599      S1603   1.811       .  S
C1600      H1604   1.083       .  S
S1601      H1606   1.407       .  S
S1603      H1607   1.407       .  S
C1609      C1610   1.404       .  A
C1609      C1614   1.399       .  A
C1609      H1619   1.084       .  S
C1610      C1615   1.488       .  S
C1610      C1611   1.415       .  A
C1611      C1612   1.402       .  A
C1611      S1616   1.804       .  S
C1612      C1613   1.403       .  A
C1612      H1617   1.084       .  S
C1613      C1614   1.415       .  A
C1614      S1618   1.808       .  S
C1615      C1620   1.401       .  A
C1615      C1624   1.400       .  A
S1616      H1632   1.406       .  S
S1618      H1629   1.399       .  S
C1620      C1621   1.395       .  A
C1620      S1625   1.812       .  S
C1621      C1622   1.424       .  A
C1621      H1626   1.069       .  S
C1622      C1623   1.434       .  A
C1623      C1624   1.410       .  A
C1623      S1627   1.810       .  S
C1624      H1628   1.082       .  S
S1625      H1630   1.407       .  S
S1627      H1631   1.406       .  S
C1633      C1634   1.393       .  A
C1633      C1638   1.400       .  A
C1633      H1643   1.083       .  S
C1634      C1639   1.475       .  S
C1634      C1635   1.407       .  A
C1635      C1636   1.401       .  A
C1635      S1640   1.804       .  S
C1636      C1637   1.414       .  A
C1636      H1641   1.075       .  S
C1637      C1638   1.438       .  A
C1638      S1642   1.814       .  S
C1639      C1644   1.411       .  A
C1639      C1648   1.399       .  A
S1640      H1656   1.406       .  S
S1642      H1653   1.406       .  S
C1644      C1645   1.401       .  A
C1644      S1649   1.807       .  S
C1645      C1646   1.403       .  A
C1645      H1650   1.083       .  S
C1646      C1647   1.416       .  A
C1647      C1648   1.396       .  A
C1647      S1651   1.802       .  S
C1648      H1652   1.084       .  S
S1649      H1654   1.407       .  S
S1651      H1655   1.404       .  S
C1657      C1658   1.402       .  A
C1657      C1662   1.393       .  A
C1657      H1667   1.084       .  S
C1658      C1663   1.467       .  S
C1658      C1659   1.410       .  A
C1659      C1660   1.394       .  A
C1659      S1664   1.805       .  S
C1660      C1661   1.399       .  A
C1660      H1665   1.084       .  S
C1661      C1662   1.409       .  A
C1662      S1666   1.805       .  S
C1663      C1668   1.396       .  A
C1663      C1672   1.393       .  A
S1664      H1680   1.407       .  S
S1666      H1677   1.403       .  S
C1668      C1669   1.390       .  A
C1668      S1673   1.809       .  S
C1669      C1670   1.423       .  A
C1669      H1674   1.071       .  S
C1670      C1671   1.438       .  A
C1671      C1672   1.401       .  A
C1671      S1675   1.810       .  S
C1672      H1676   1.083       .  S
S1673      H1678   1.408       .  S
S1675      H1679   1.406       .  S
C1681      C1682   1.402       .  A
C1681      C1686   1.405       .  A
C1681      H1691   1.084       .  S
C1682      C1687   1.494       .  S
C1682      C1683   1.412       .  A
C1683      C1684   1.405       .  A
C1683      S1688   1.805       .  S
C1684      C1685   1.413       .  A
C1684      H1689   1.083       .  S
C1685      C1686   1.425       .  A
C1686      S1690   1.802       .  S
C1687      C1692   1.405       .  A
C1687      C1696   1.395       .  A
S1688      H1704   1.405       .  S
S1690      H1701   1.402       .  S
C1692      C1693   1.408       .  A
C1692      S1697   1.807       .  S
C1693      C1694   1.424       .  A
C1693      H1698   1.076       .  S
C1694      C1695   1.441       .  A
C1695      C1696   1.407       .  A
C1695      S1699   1.811       .  S
C1696      H1700   1.082       .  S
S1697      H1702   1.407       .  S
S1699      H1703   1.406       .  S
C1705      C1706   1.400       .  A
C1705      C1710   1.403       .  A
C1705      H1715   1.084       .  S
C1706      C1711   1.495       .  S
C1706      C1707   1.416       .  A
C1707      C1708   1.405       .  A
C1707      S1712   1.806       .  S
C1708      C1709   1.409       .  A
C1708      H1713   1.083       .  S
C1709      C1710   1.427       .  A
C1710      S1714   1.804       .  S
C1711      C1716   1.402       .  A
C1711      C1720   1.403       .  A
S1712      H1728   1.406       .  S
S1714      H1725   1.402       .  S
C1716      C1717   1.399       .  A
C1716      S1721   1.809       .  S
C1717      C1718   1.427       .  A
C1717      H1722   1.079   1_565  S
C1718      C1719   1.430       .  A
C1719      C1720   1.414       .  A
C1719      S1723   1.801       .  S
C1720      H1724   1.082       .  S
S1721      H1726   1.407       .  S
S1723      H1727   1.406       .  S
C1729      C1730   1.389       .  A
C1729      C1734   1.393       .  A
C1729      H1739   1.085       .  S
C1730      C1735   1.475       .  S
C1730      C1731   1.405       .  A
C1731      C1732   1.399       .  A
C1731      S1736   1.805       .  S
C1732      C1733   1.420       .  A
C1732      H1737   1.080       .  S
C1733      C1734   1.444       .  A
C1734      S1738   1.813   1_565  S
C1735      C1740   1.410       .  A
C1735      C1744   1.403       .  A
S1736      H1752   1.405       .  S
S1738      H1749   1.408       .  S
C1740      C1741   1.398       .  A
C1740      S1745   1.807       .  S
C1741      C1742   1.402       .  A
C1741      H1746   1.083       .  S
C1742      C1743   1.413       .  A
C1743      C1744   1.395       .  A
C1743      S1747   1.808       .  S
C1744      H1748   1.084       .  S
S1745      H1750   1.407       .  S
S1747      H1751   1.400       .  S
C1753      C1754   1.398       .  A
C1753      C1758   1.395       .  A
C1753      H1763   1.084       .  S
C1754      C1759   1.473       .  S
C1754      C1755   1.412       .  A
C1755      C1756   1.400       .  A
C1755      S1760   1.804       .  S
C1756      C1757   1.404       .  A
C1756      H1761   1.082       .  S
C1757      C1758   1.419       .  A
C1758      S1762   1.805       .  S
C1759      C1764   1.403       .  A
C1759      C1768   1.388       .  A
S1760      H1776   1.405       .  S
S1762      H1773   1.408       .  S
C1764      C1765   1.407       .  A
C1764      S1769   1.805       .  S
C1765      C1766   1.421       .  A
C1765      H1770   1.076       .  S
C1766      C1767   1.439       .  A
C1767      C1768   1.392       .  A
C1767      S1771   1.814       .  S
C1768      H1772   1.083       .  S
S1769      H1774   1.407       .  S
S1771      H1775   1.406       .  S
C1777      C1778   1.401       .  A
C1777      C1782   1.404       .  A
C1777      H1787   1.083       .  S
C1778      C1783   1.486       .  S
C1778      C1779   1.413       .  A
C1779      C1780   1.401       .  A
C1779      S1784   1.805       .  S
C1780      C1781   1.405       .  A
C1780      H1785   1.084       .  S
C1781      C1782   1.420       .  A
C1782      S1786   1.808       .  S
C1783      C1788   1.404       .  A
C1783      C1792   1.391       .  A
S1784      H1800   1.407       .  S
S1786      H1797   1.407       .  S
C1788      C1789   1.405       .  A
C1788      S1793   1.805       .  S
C1789      C1790   1.419       .  A
C1789      H1794   1.082       .  S
C1790      C1791   1.449       .  A
C1791      C1792   1.400       .  A
C1791      S1795   1.818   1_565  S
C1792      H1796   1.084       .  S
S1793      H1798   1.407       .  S
S1795      H1799   1.407       .  S
C1801      C1802   1.400       .  A
C1801      C1806   1.396       .  A
C1801      H1811   1.084       .  S
C1802      C1807   1.478       .  S
C1802      C1803   1.413       .  A
C1803      C1804   1.400       .  A
C1803      S1808   1.804       .  S
C1804      C1805   1.402       .  A
C1804      H1809   1.084       .  S
C1805      C1806   1.415       .  A
C1806      S1810   1.805       .  S
C1807      C1812   1.403       .  A
C1807      C1816   1.392       .  A
S1808      H1824   1.407       .  S
S1810      H1821   1.398       .  S
C1812      C1813   1.402       .  A
C1812      S1817   1.807       .  S
C1813      C1814   1.421       .  A
C1813      H1818   1.077       .  S
C1814      C1815   1.434       .  A
C1815      C1816   1.398       .  A
C1815      S1819   1.802       .  S
C1816      H1820   1.083       .  S
S1817      H1822   1.407       .  S
S1819      H1823   1.407       .  S
C1825      C1826   1.400       .  A
C1825      C1830   1.395       .  A
C1825      H1835   1.084       .  S
C1826      C1831   1.477       .  S
C1826      C1827   1.414       .  A
C1827      C1828   1.400       .  A
C1827      S1832   1.803       .  S
C1828      C1829   1.403       .  A
C1828      H1833   1.084       .  S
C1829      C1830   1.413       .  A
C1830      S1834   1.805       .  S
C1831      C1836   1.397       .  A
C1831      C1840   1.397       .  A
S1832      H1848   1.404       .  S
S1834      H1845   1.404       .  S
C1836      C1837   1.395       .  A
C1836      S1841   1.807       .  S
C1837      C1838   1.425       .  A
C1837      H1842   1.080       .  S
C1838      C1839   1.442       .  A
C1839      C1840   1.405       .  A
C1839      S1843   1.812       .  S
C1840      H1844   1.083       .  S
S1841      H1846   1.407       .  S
S1843      H1847   1.407       .  S
C1849      C1850   1.405       .  A
C1849      C1854   1.406       .  A
C1849      H1859   1.084       .  S
C1850      C1855   1.488       .  S
C1850      C1851   1.412       .  A
C1851      C1852   1.401       .  A
C1851      S1856   1.804       .  S
C1852      C1853   1.406       .  A
C1852      H1857   1.084       .  S
C1853      C1854   1.415       .  A
C1854      S1858   1.804       .  S
C1855      C1860   1.403       .  A
C1855      C1864   1.396       .  A
S1856      H1872   1.406       .  S
S1858      H1869   1.407       .  S
C1860      C1861   1.405       .  A
C1860      S1865   1.807       .  S
C1861      C1862   1.421       .  A
C1861      H1866   1.077       .  S
C1862      C1863   1.437       .  A
C1863      C1864   1.407       .  A
C1863      S1867   1.811       .  S
C1864      H1868   1.083       .  S
S1865      H1870   1.406       .  S
S1867      H1871   1.407       .  S
C1873      C1874   1.404       .  A
C1873      C1878   1.404       .  A
C1873      H1883   1.084       .  S
C1874      C1879   1.478       .  S
C1874      C1875   1.410       .  A
C1875      C1876   1.395       .  A
C1875      S1880   1.805       .  S
C1876      C1877   1.404       .  A
C1876      H1881   1.084       .  S
C1877      C1878   1.414       .  A
C1878      S1882   1.803       .  S
C1879      C1884   1.400       .  A
C1879      C1888   1.393       .  A
S1880      H1896   1.404       .  S
S1882      H1893   1.407       .  S
C1884      C1885   1.398       .  A
C1884      S1889   1.809       .  S
C1885      C1886   1.421       .  A
C1885      H1890   1.075       .  S
C1886      C1887   1.441       .  A
C1887      C1888   1.405       .  A
C1887      S1891   1.809       .  S
C1888      H1892   1.083       .  S
S1889      H1894   1.407       .  S
S1891      H1895   1.408       .  S
C1897      C1898   1.400       .  A
C1897      C1902   1.399       .  A
C1897      H1907   1.084       .  S
C1898      C1903   1.483       .  S
C1898      C1899   1.415   1_556  A
C1899      C1900   1.404       .  A
C1899      S1904   1.806       .  S
C1900      C1901   1.403   1_554  A
C1900      H1905   1.082       .  S
C1901      C1902   1.417       .  A
C1902      S1906   1.802       .  S
C1903      C1908   1.403   1_556  A
C1903      C1912   1.391       .  A
S1904      H1920   1.402       .  S
S1906      H1917   1.404       .  S
C1908      C1909   1.407       .  A
C1908      S1913   1.806       .  S
C1909      C1910   1.424   1_554  A
C1909      H1914   1.075       .  S
C1910      C1911   1.440       .  A
C1911      C1912   1.401       .  A
C1911      S1915   1.804       .  S
C1912      H1916   1.083       .  S
S1913      H1918   1.407       .  S
S1915      H1919   1.407       .  S
C1921      C1922   1.407       .  A
C1921      C1926   1.404       .  A
C1921      H1931   1.084       .  S
C1922      C1927   1.476       .  S
C1922      C1923   1.407   1_556  A
C1923      C1924   1.391       .  A
C1923      S1928   1.807       .  S
C1924      C1925   1.408   1_554  A
C1924      H1929   1.083       .  S
C1925      C1926   1.412       .  A
C1926      S1930   1.802       .  S
C1927      C1932   1.398       .  A
C1927      C1936   1.392       .  A
S1928      H1944   1.405       .  S
S1930      H1941   1.407       .  S
C1932      C1933   1.400       .  A
C1932      S1937   1.807       .  S
C1933      C1934   1.425       .  A
C1933      H1938   1.072       .  S
C1934      C1935   1.438       .  A
C1935      C1936   1.403       .  A
C1935      S1939   1.802       .  S
C1936      H1940   1.083       .  S
S1937      H1942   1.407       .  S
S1939      H1943   1.407       .  S
C1945      C1946   1.410       .  A
C1945      C1950   1.411       .  A
C1945      H1955   1.084       .  S
C1946      C1951   1.502       .  S
C1946      C1947   1.413   1_556  A
C1947      C1948   1.403       .  A
C1947      S1952   1.804       .  S
C1948      C1949   1.407   1_554  A
C1948      H1953   1.080       .  S
C1949      C1950   1.418       .  A
C1950      S1954   1.803       .  S
C1951      C1956   1.402   1_556  A
C1951      C1960   1.402       .  A
S1952      H1968   1.406       .  S
S1954      H1965   1.407       .  S
C1956      C1957   1.404       .  A
C1956      S1961   1.808       .  S
C1957      C1958   1.430   1_554  A
C1957      H1962   1.077       .  S
C1958      C1959   1.434       .  A
C1959      C1960   1.416       .  A
C1959      S1963   1.803       .  S
C1960      H1964   1.082       .  S
S1961      H1966   1.407       .  S
S1963      H1967   1.406       .  S
C1969      C1970   1.395   1_554  A
C1969      C1974   1.400       .  A
C1969      H1979   1.084       .  S
C1970      C1975   1.481       .  S
C1970      C1971   1.403       .  A
C1971      C1972   1.394       .  A
C1971      S1976   1.805       .  S
C1972      C1973   1.425       .  A
C1972      H1977   1.084       .  S
C1973      C1974   1.441   1_556  A
C1974      S1978   1.806       .  S
C1975      C1980   1.414       .  A
C1975      C1984   1.398   1_556  A
S1976      H1992   1.406       .  S
S1978      H1989   1.407       .  S
C1980      C1981   1.408       .  A
C1980      S1985   1.806       .  S
C1981      C1982   1.405       .  A
C1981      H1986   1.083       .  S
C1982      C1983   1.417   1_556  A
C1983      C1984   1.390       .  A
C1983      S1987   1.812       .  S
C1984      H1988   1.083       .  S
S1985      H1990   1.406       .  S
S1987      H1991   1.407       .  S
C1993      C1994   1.395       .  A
C1993      C1998   1.404       .  A
C1993      H2003   1.083       .  S
C1994      C1999   1.491       .  S
C1994      C1995   1.408       .  A
C1995      C1996   1.404       .  A
C1995      S2000   1.807       .  S
C1996      C1997   1.424       .  A
C1996      H2001   1.078       .  S
C1997      C1998   1.437       .  A
C1998      S2002   1.803       .  S
C1999      C2004   1.410       .  A
C1999      C2008   1.399       .  A
S2000      H2016   1.405       .  S
S2002      H2013   1.407       .  S
C2004      C2005   1.410       .  A
C2004      S2009   1.806       .  S
C2005      C2006   1.411       .  A
C2005      H2010   1.082       .  S
C2006      C2007   1.423       .  A
C2007      C2008   1.399       .  A
C2007      S2011   1.799       .  S
C2008      H2012   1.084       .  S
S2009      H2014   1.407       .  S
S2011      H2015   1.399       .  S
C2017      C2018   1.393       .  A
C2017      C2022   1.402       .  A
C2017      H2027   1.083       .  S
C2018      C2023   1.476       .  S
C2018      C2019   1.404       .  A
C2019      C2020   1.395       .  A
C2019      S2024   1.806       .  S
C2020      C2021   1.421       .  A
C2020      H2025   1.075       .  S
C2021      C2022   1.439       .  A
C2022      S2026   1.807       .  S
C2023      C2028   1.411       .  A
C2023      C2032   1.402       .  A
S2024      H2040   1.406       .  S
S2026      H2037   1.407       .  S
C2028      C2029   1.403       .  A
C2028      S2033   1.806       .  S
C2029      C2030   1.402       .  A
C2029      H2034   1.083       .  S
C2030      C2031   1.407       .  A
C2031      C2032   1.394       .  A
C2031      S2035   1.805       .  S
C2032      H2036   1.084       .  S
S2033      H2038   1.407       .  S
S2035      H2039   1.406       .  S
C2041      C2042   1.400       .  A
C2041      C2046   1.410       .  A
C2041      H2051   1.083       .  S
C2042      C2047   1.497       .  S
C2042      C2043   1.413   1_556  A
C2043      C2044   1.406       .  A
C2043      S2048   1.803       .  S
C2044      C2045   1.410   1_554  A
C2044      H2049   1.083       .  S
C2045      C2046   1.428       .  A
C2046      S2050   1.808       .  S
C2047      C2052   1.400       .  A
C2047      C2056   1.400       .  A
S2048      H2064   1.405       .  S
S2050      H2061   1.407       .  S
C2052      C2053   1.404       .  A
C2052      S2057   1.807       .  S
C2053      C2054   1.428       .  A
C2053      H2058   1.076       .  S
C2054      C2055   1.435       .  A
C2055      C2056   1.415       .  A
C2055      S2059   1.798       .  S
C2056      H2060   1.083       .  S
S2057      H2062   1.407       .  S
S2059      H2063   1.407       .  S
C2065      C2066   1.397   1_556  A
C2065      C2070   1.406       .  A
C2065      H2075   1.082       .  S
C2066      C2071   1.482       .  S
C2066      C2067   1.403       .  A
C2067      C2068   1.392       .  A
C2067      S2072   1.806       .  S
C2068      C2069   1.422   1_554  A
C2068      H2073   1.078       .  S
C2069      C2070   1.441       .  A
C2070      S2074   1.812       .  S
C2071      C2076   1.409       .  A
C2071      C2080   1.406       .  A
S2072      H2088   1.406       .  S
S2074      H2085   1.406       .  S
C2076      C2077   1.397       .  A
C2076      S2081   1.810       .  S
C2077      C2078   1.408       .  A
C2077      H2082   1.083       .  S
C2078      C2079   1.412       .  A
C2079      C2080   1.400       .  A
C2079      S2083   1.803   1_565  S
C2080      H2084   1.084       .  S
S2081      H2086   1.407       .  S
S2083      H2087   1.407   1_554  S
C2089      C2090   1.399   1_556  A
C2089      C2094   1.397       .  A
C2089      H2099   1.084       .  S
C2090      C2095   1.483       .  S
C2090      C2091   1.416       .  A
C2091      C2092   1.406       .  A
C2091      S2096   1.807       .  S
C2092      C2093   1.406       .  A
C2092      H2097   1.084       .  S
C2093      C2094   1.415   1_554  A
C2094      S2098   1.801       .  S
C2095      C2100   1.400       .  A
C2095      C2104   1.394   1_554  A
S2096      H2112   1.404       .  S
S2098      H2109   1.406       .  S
C2100      C2101   1.402       .  A
C2100      S2105   1.807       .  S
C2101      C2102   1.426   1_554  A
C2101      H2106   1.075       .  S
C2102      C2103   1.438       .  A
C2103      C2104   1.405       .  A
C2103      S2107   1.809       .  S
C2104      H2108   1.083       .  S
S2105      H2110   1.407       .  S
S2107      H2111   1.406       .  S
C2113      C2114   1.398       .  A
C2113      C2118   1.397       .  A
C2113      H2123   1.084   1_554  S
C2114      C2119   1.474       .  S
C2114      C2115   1.410       .  A
C2115      C2116   1.399       .  A
C2115      S2120   1.804       .  S
C2116      C2117   1.402       .  A
C2116      H2121   1.081       .  S
C2117      C2118   1.418       .  A
C2118      S2122   1.806   1_554  S
C2119      C2124   1.396       .  A
C2119      C2128   1.395   1_554  A
S2120      H2136   1.404       .  S
S2122      H2133   1.399       .  S
C2124      C2125   1.396       .  A
C2124      S2129   1.806       .  S
C2125      C2126   1.425       .  A
C2125      H2130   1.081       .  S
C2126      C2127   1.441   1_554  A
C2127      C2128   1.404       .  A
C2127      S2131   1.812       .  S
C2128      H2132   1.083       .  S
S2129      H2134   1.407       .  S
S2131      H2135   1.407       .  S
C2137      C2138   1.400       .  A
C2137      C2142   1.409       .  A
C2137      H2147   1.083       .  S
C2138      C2143   1.485       .  S
C2138      C2139   1.409   1_545  A
C2139      C2140   1.399       .  A
C2139      S2144   1.804       .  S
C2140      C2141   1.410   1_565  A
C2140      H2145   1.083       .  S
C2141      C2142   1.426       .  A
C2142      S2146   1.809       .  S
C2143      C2148   1.403       .  A
C2143      C2152   1.389       .  A
S2144      H2160   1.406       .  S
S2146      H2157   1.406       .  S
C2148      C2149   1.410       .  A
C2148      S2153   1.805       .  S
C2149      C2150   1.420       .  A
C2149      H2154   1.080       .  S
C2150      C2151   1.447       .  A
C2151      C2152   1.400       .  A
C2151      S2155   1.815       .  S
C2152      H2156   1.084       .  S
S2153      H2158   1.407       .  S
S2155      H2159   1.408   1_545  S
C2161      C2162   1.395       .  A
C2161      C2166   1.402       .  A
C2161      H2171   1.083       .  S
C2162      C2167   1.481       .  S
C2162      C2163   1.406   1_545  A
C2163      C2164   1.399       .  A
C2163      S2168   1.805       .  S
C2164      C2165   1.421   1_565  A
C2164      H2169   1.077       .  S
C2165      C2166   1.435       .  A
C2166      S2170   1.810       .  S
C2167      C2172   1.408       .  A
C2167      C2176   1.402   1_545  A
S2168      H2184   1.405       .  S
S2170      H2181   1.406       .  S
C2172      C2173   1.401       .  A
C2172      S2177   1.807       .  S
C2173      C2174   1.408       .  A
C2173      H2178   1.083       .  S
C2174      C2175   1.416   1_545  A
C2175      C2176   1.401       .  A
C2175      S2179   1.800       .  S
C2176      H2180   1.084       .  S
S2177      H2182   1.407       .  S
S2179      H2183   1.407       .  S
C2185      C2186   1.398       .  A
C2185      C2190   1.397       .  A
C2185      H2195   1.084       .  S
C2186      C2191   1.477       .  S
C2186      C2187   1.413       .  A
C2187      C2188   1.399       .  A
C2187      S2192   1.805       .  S
C2188      C2189   1.405       .  A
C2188      H2193   1.083       .  S
C2189      C2190   1.420       .  A
C2190      S2194   1.799       .  S
C2191      C2196   1.400       .  A
C2191      C2200   1.391       .  A
S2192      H2208   1.407       .  S
S2194      H2205   1.407       .  S
C2196      C2197   1.400       .  A
C2196      S2201   1.807       .  S
C2197      C2198   1.421       .  A
C2197      H2202   1.077       .  S
C2198      C2199   1.444       .  A
C2199      C2200   1.398       .  A
C2199      S2203   1.812       .  S
C2200      H2204   1.084       .  S
S2201      H2206   1.407       .  S
S2203      H2207   1.408       .  S
C2209      C2210   1.403       .  A
C2209      C2214   1.399       .  A
C2209      H2219   1.084       .  S
C2210      C2215   1.479       .  S
C2210      C2211   1.408       .  A
C2211      C2212   1.400       .  A
C2211      S2216   1.806       .  S
C2212      C2213   1.413       .  A
C2212      H2217   1.084       .  S
C2213      C2214   1.417       .  A
C2214      S2218   1.800       .  S
C2215      C2220   1.402       .  A
C2215      C2224   1.393       .  A
S2216      H2232   1.405       .  S
S2218      H2229   1.408       .  S
C2220      C2221   1.405       .  A
C2220      S2225   1.806       .  S
C2221      C2222   1.425       .  A
C2221      H2226   1.081       .  S
C2222      C2223   1.445       .  A
C2223      C2224   1.399       .  A
C2223      S2227   1.813       .  S
C2224      H2228   1.085       .  S
S2225      H2230   1.407       .  S
S2227      H2231   1.393       .  S
C2233      C2234   1.397       .  A
C2233      C2238   1.408       .  A
C2233      H2243   1.083       .  S
C2234      C2239   1.478       .  S
C2234      C2235   1.399       .  A
C2235      C2236   1.392       .  A
C2235      S2240   1.807       .  S
C2236      C2237   1.424       .  A
C2236      H2241   1.071       .  S
C2237      C2238   1.436       .  A
C2238      S2242   1.809       .  S
C2239      C2244   1.406       .  A
C2239      C2248   1.405       .  A
S2240      H2256   1.404       .  S
S2242      H2253   1.407       .  S
C2244      C2245   1.401       .  A
C2244      S2249   1.806       .  S
C2245      C2246   1.402       .  A
C2245      H2250   1.081       .  S
C2246      C2247   1.409       .  A
C2247      C2248   1.405       .  A
C2247      S2251   1.806       .  S
C2248      H2252   1.083       .  S
S2249      H2254   1.407       .  S
S2251      H2255   1.406       .  S
C2257      C2258   1.399       .  A
C2257      C2262   1.402       .  A
C2257      H2267   1.082       .  S
C2258      C2263   1.494       .  S
C2258      C2259   1.411       .  A
C2259      C2260   1.398       .  A
C2259      S2264   1.806       .  S
C2260      C2261   1.419       .  A
C2260      H2265   1.076       .  S
C2261      C2262   1.436       .  A
C2262      S2266   1.813       .  S
C2263      C2268   1.417       .  A
C2263      C2272   1.402       .  A
S2264      H2280   1.406       .  S
S2266      H2277   1.406       .  S
C2268      C2269   1.405       .  A
C2268      S2273   1.808       .  S
C2269      C2270   1.401       .  A
C2269      H2274   1.083       .  S
C2270      C2271   1.416       .  A
C2271      C2272   1.396       .  A
C2271      S2275   1.804       .  S
C2272      H2276   1.083       .  S
S2273      H2278   1.407       .  S
S2275      H2279   1.394       .  S
C2281      C2282   1.394       .  A
C2281      C2286   1.409       .  A
C2281      H2291   1.083       .  S
C2282      C2287   1.491       .  S
C2282      C2283   1.405       .  A
C2283      C2284   1.403       .  A
C2283      S2288   1.804       .  S
C2284      C2285   1.424       .  A
C2284      H2289   1.079       .  S
C2285      C2286   1.439       .  A
C2286      S2290   1.804       .  S
C2287      C2292   1.413       .  A
C2287      C2296   1.400       .  A
S2288      H2304   1.405       .  S
S2290      H2301   1.406       .  S
C2292      C2293   1.411       .  A
C2292      S2297   1.805       .  S
C2293      C2294   1.404       .  A
C2293      H2298   1.083       .  S
C2294      C2295   1.417       .  A
C2295      C2296   1.401       .  A
C2295      S2299   1.801       .  S
C2296      H2300   1.084       .  S
S2297      H2302   1.407       .  S
S2299      H2303   1.400       .  S
C2305      C2306   1.391       .  A
C2305      C2310   1.397       .  A
C2305      H2315   1.084       .  S
C2306      C2311   1.491       .  S
C2306      C2307   1.409       .  A
C2307      C2308   1.407       .  A
C2307      S2312   1.802       .  S
C2308      C2309   1.422       .  A
C2308      H2313   1.084       .  S
C2309      C2310   1.448       .  A
C2310      S2314   1.813   1_554  S
C2311      C2316   1.413       .  A
C2311      C2320   1.405       .  A
S2312      H2328   1.406       .  S
S2314      H2325   1.408       .  S
C2316      C2317   1.402       .  A
C2316      S2321   1.808       .  S
C2317      C2318   1.399       .  A
C2317      H2322   1.079       .  S
C2318      C2319   1.415       .  A
C2319      C2320   1.404       .  A
C2319      S2323   1.805       .  S
C2320      H2324   1.084       .  S
S2321      H2326   1.406       .  S
S2323      H2327   1.406       .  S
C2329      C2330   1.395       .  A
C2329      C2334   1.396       .  A
C2329      H2339   1.084       .  S
C2330      C2335   1.484       .  S
C2330      C2331   1.413       .  A
C2331      C2332   1.402       .  A
C2331      S2336   1.805       .  S
C2332      C2333   1.406       .  A
C2332      H2337   1.082       .  S
C2333      C2334   1.428       .  A
C2334      S2338   1.802       .  S
C2335      C2340   1.400       .  A
C2335      C2344   1.405       .  A
S2336      H2352   1.406       .  S
S2338      H2349   1.407       .  S
C2340      C2341   1.391       .  A
C2340      S2345   1.809       .  S
C2341      C2342   1.426       .  A
C2341      H2346   1.077       .  S
C2342      C2343   1.434       .  A
C2343      C2344   1.410       .  A
C2343      S2347   1.801       .  S
C2344      H2348   1.084       .  S
S2345      H2350   1.407       .  S
S2347      H2351   1.400       .  S
C2353      C2354   1.397       .  A
C2353      C2358   1.406       .  A
C2353      H2363   1.083       .  S
C2354      C2359   1.481       .  S
C2354      C2355   1.403       .  A
C2355      C2356   1.393       .  A
C2355      S2360   1.806       .  S
C2356      C2357   1.422       .  A
C2356      H2361   1.076       .  S
C2357      C2358   1.435       .  A
C2358      S2362   1.811       .  S
C2359      C2364   1.409       .  A
C2359      C2368   1.404       .  A
S2360      H2376   1.406       .  S
S2362      H2373   1.407       .  S
C2364      C2365   1.402       .  A
C2364      S2369   1.806       .  S
C2365      C2366   1.405       .  A
C2365      H2370   1.082       .  S
C2366      C2367   1.412       .  A
C2367      C2368   1.398       .  A
C2367      S2371   1.804   1_565  S
C2368      H2372   1.084       .  S
S2369      H2374   1.408       .  S
S2371      H2375   1.407       .  S
C2377      C2378   1.393       .  A
C2377      C2382   1.393       .  A
C2377      H2387   1.084       .  S
C2378      C2383   1.492       .  S
C2378      C2379   1.414       .  A
C2379      C2380   1.412       .  A
C2379      S2384   1.802       .  S
C2380      C2381   1.420       .  A
C2380      H2385   1.082       .  S
C2381      C2382   1.437       .  A
C2382      S2386   1.809   1_554  S
C2383      C2388   1.415       .  A
C2383      C2392   1.405       .  A
S2384      H2400   1.406       .  S
S2386      H2397   1.408   1_556  S
C2388      C2389   1.407       .  A
C2388      S2393   1.803       .  S
C2389      C2390   1.403       .  A
C2389      H2394   1.083       .  S
C2390      C2391   1.410       .  A
C2391      C2392   1.396       .  A
C2391      S2395   1.796       .  S
C2392      H2396   1.084       .  S
S2393      H2398   1.407       .  S
S2395      H2399   1.400       .  S
C2401      C2402   1.405       .  A
C2401      C2406   1.402       .  A
C2401      H2411   1.084       .  S
C2402      C2407   1.487       .  S
C2402      C2403   1.413       .  A
C2403      C2404   1.400       .  A
C2403      S2408   1.803       .  S
C2404      C2405   1.406       .  A
C2404      H2409   1.084       .  S
C2405      C2406   1.416       .  A
C2406      S2410   1.804       .  S
C2407      C2412   1.401       .  A
C2407      C2416   1.396       .  A
S2408      H2424   1.406       .  S
S2410      H2421   1.407       .  S
C2412      C2413   1.401       .  A
C2412      S2417   1.810       .  S
C2413      C2414   1.426       .  A
C2413      H2418   1.075       .  S
C2414      C2415   1.435       .  A
C2415      C2416   1.408       .  A
C2415      S2419   1.802       .  S
C2416      H2420   1.083       .  S
S2417      H2422   1.407       .  S
S2419      H2423   1.407       .  S
C2425      C2426   1.404       .  A
C2425      C2430   1.400       .  A
C2425      H2435   1.083       .  S
C2426      C2431   1.478       .  S
C2426      C2427   1.409       .  A
C2427      C2428   1.398       .  A
C2427      S2432   1.803       .  S
C2428      C2429   1.407       .  A
C2428      H2433   1.084       .  S
C2429      C2430   1.411       .  A
C2430      S2434   1.803       .  S
C2431      C2436   1.400       .  A
C2431      C2440   1.398       .  A
S2432      H2448   1.404       .  S
S2434      H2445   1.407       .  S
C2436      C2437   1.399       .  A
C2436      S2441   1.808       .  S
C2437      C2438   1.423       .  A
C2437      H2442   1.073       .  S
C2438      C2439   1.436       .  A
C2439      C2440   1.405       .  A
C2439      S2443   1.806       .  S
C2440      H2444   1.084       .  S
S2441      H2446   1.407       .  S
S2443      H2447   1.398       .  S
C2449      C2450   1.394       .  A
C2449      C2454   1.399       .  A
C2449      H2459   1.085       .  S
C2450      C2455   1.483       .  S
C2450      C2451   1.405       .  A
C2451      C2452   1.398       .  A
C2451      S2456   1.804       .  S
C2452      C2453   1.422       .  A
C2452      H2457   1.077       .  S
C2453      C2454   1.442       .  A
C2454      S2458   1.804       .  S
C2455      C2460   1.411       .  A
C2455      C2464   1.406       .  A
S2456      H2472   1.406       .  S
S2458      H2469   1.396       .  S
C2460      C2461   1.397       .  A
C2460      S2465   1.810       .  S
C2461      C2462   1.403       .  A
C2461      H2466   1.084       .  S
C2462      C2463   1.410       .  A
C2463      C2464   1.403       .  A
C2463      S2467   1.798       .  S
C2464      H2468   1.084       .  S
S2465      H2470   1.406       .  S
S2467      H2471   1.403       .  S
C2473      C2474   1.397       .  A
C2473      C2478   1.406       .  A
C2473      H2483   1.083       .  S
C2474      C2479   1.487       .  S
C2474      C2475   1.405   1_545  A
C2475      C2476   1.397   1_565  A
C2475      S2480   1.805       .  S
C2476      C2477   1.422       .  A
C2476      H2481   1.078       .  S
C2477      C2478   1.433       .  A
C2478      S2482   1.800       .  S
C2479      C2484   1.411   1_545  A
C2479      C2488   1.405       .  A
S2480      H2496   1.406       .  S
S2482      H2493   1.407   1_545  S
C2484      C2485   1.403       .  A
C2484      S2489   1.807       .  S
C2485      C2486   1.408   1_565  A
C2485      H2490   1.083       .  S
C2486      C2487   1.414       .  A
C2487      C2488   1.400       .  A
C2487      S2491   1.802       .  S
C2488      H2492   1.084       .  S
S2489      H2494   1.407       .  S
S2491      H2495   1.407       .  S
C2497      C2498   1.389       .  A
C2497      C2502   1.395       .  A
C2497      H2507   1.084       .  S
C2498      C2503   1.487       .  S
C2498      C2499   1.409       .  A
C2499      C2500   1.406       .  A
C2499      S2504   1.804       .  S
C2500      C2501   1.421       .  A
C2500      H2505   1.082       .  S
C2501      C2502   1.448       .  A
C2502      S2506   1.818       .  S
C2503      C2508   1.409   1_545  A
C2503      C2512   1.406       .  A
S2504      H2520   1.405       .  S
S2506      H2517   1.407       .  S
C2508      C2509   1.405       .  A
C2508      S2513   1.807       .  S
C2509      C2510   1.410   1_565  A
C2509      H2514   1.083       .  S
C2510      C2511   1.414       .  A
C2511      C2512   1.398       .  A
C2511      S2515   1.804       .  S
C2512      H2516   1.084       .  S
S2513      H2518   1.407       .  S
S2515      H2519   1.408       .  S
C2521      C2522   1.396       .  A
C2521      C2526   1.406       .  A
C2521      H2531   1.083       .  S
C2522      C2527   1.483       .  S
C2522      C2523   1.404       .  A
C2523      C2524   1.398       .  A
C2523      S2528   1.804       .  S
C2524      C2525   1.420       .  A
C2524      H2529   1.078       .  S
C2525      C2526   1.436       .  A
C2526      S2530   1.808       .  S
C2527      C2532   1.405       .  A
C2527      C2536   1.403       .  A
S2528      H2544   1.406       .  S
S2530      H2541   1.407       .  S
C2532      C2533   1.403       .  A
C2532      S2537   1.807       .  S
C2533      C2534   1.413       .  A
C2533      H2538   1.082       .  S
C2534      C2535   1.418       .  A
C2535      C2536   1.402       .  A
C2535      S2539   1.799       .  S
C2536      H2540   1.084       .  S
S2537      H2542   1.406       .  S
S2539      H2543   1.408       .  S
C2545      C2546   1.402       .  A
C2545      C2550   1.399       .  A
C2545      H2555   1.084       .  S
C2546      C2551   1.479       .  S
C2546      C2547   1.414       .  A
C2547      C2548   1.399       .  A
C2547      S2552   1.806       .  S
C2548      C2549   1.398       .  A
C2548      H2553   1.082       .  S
C2549      C2550   1.412       .  A
C2550      S2554   1.804       .  S
C2551      C2556   1.404       .  A
C2551      C2560   1.389       .  A
S2552      H2568   1.407       .  S
S2554      H2565   1.407       .  S
C2556      C2557   1.407       .  A
C2556      S2561   1.805       .  S
C2557      C2558   1.422       .  A
C2557      H2562   1.081       .  S
C2558      C2559   1.443       .  A
C2559      C2560   1.396       .  A
C2559      S2563   1.808       .  S
C2560      H2564   1.084       .  S
S2561      H2566   1.407       .  S
S2563      H2567   1.408       .  S
C2569      C2570   1.404       .  A
C2569      C2574   1.398       .  A
C2569      H2579   1.084       .  S
C2570      C2575   1.485       .  S
C2570      C2571   1.416       .  A
C2571      C2572   1.399       .  A
C2571      S2576   1.804       .  S
C2572      C2573   1.401       .  A
C2572      H2577   1.084       .  S
C2573      C2574   1.411       .  A
C2574      S2578   1.807       .  S
C2575      C2580   1.403       .  A
C2575      C2584   1.390       .  A
S2576      H2592   1.407       .  S
S2578      H2589   1.406       .  S
C2580      C2581   1.404       .  A
C2580      S2585   1.807       .  S
C2581      C2582   1.425       .  A
C2581      H2586   1.082       .  S
C2582      C2583   1.446       .  A
C2583      C2584   1.398       .  A
C2583      S2587   1.807       .  S
C2584      H2588   1.084       .  S
S2585      H2590   1.407       .  S
S2587      H2591   1.408       .  S
C2593      C2594   1.397       .  A
C2593      C2598   1.394       .  A
C2593      H2603   1.084       .  S
C2594      C2599   1.466       .  S
C2594      C2595   1.408       .  A
C2595      C2596   1.395       .  A
C2595      S2600   1.807       .  S
C2596      C2597   1.410       .  A
C2596      H2601   1.084       .  S
C2597      C2598   1.419       .  A
C2598      S2602   1.800       .  S
C2599      C2604   1.397       .  A
C2599      C2608   1.390       .  A
S2600      H2616   1.404       .  S
S2602      H2613   1.407       .  S
C2604      C2605   1.394       .  A
C2604      S2609   1.807       .  S
C2605      C2606   1.418       .  A
C2605      H2610   1.075       .  S
C2606      C2607   1.442       .  A
C2607      C2608   1.400       .  A
C2607      S2611   1.813       .  S
C2608      H2612   1.084       .  S
S2609      H2614   1.407       .  S
S2611      H2615   1.408       .  S
C2617      C2618   1.396       .  A
C2617      C2622   1.405       .  A
C2617      H2627   1.082       .  S
C2618      C2623   1.494       .  S
C2618      C2619   1.412       .  A
C2619      C2620   1.406       .  A
C2619      S2624   1.805       .  S
C2620      C2621   1.419       .  A
C2620      H2625   1.078       .  S
C2621      C2622   1.439       .  A
C2622      S2626   1.813       .  S
C2623      C2628   1.417       .  A
C2623      C2632   1.401       .  A
S2624      H2640   1.406       .  S
S2626      H2637   1.406       .  S
C2628      C2629   1.411       .  A
C2628      S2633   1.806       .  S
C2629      C2630   1.402       .  A
C2629      H2634   1.083       .  S
C2630      C2631   1.414       .  A
C2631      C2632   1.399       .  A
C2631      S2635   1.797       .  S
C2632      H2636   1.084       .  S
S2633      H2638   1.407       .  S
S2635      H2639   1.400       .  S
C2641      C2642   1.400       .  A
C2641      C2646   1.411       .  A
C2641      H2651   1.082       .  S
C2642      C2647   1.491       .  S
C2642      C2643   1.405       .  A
C2643      C2644   1.395       .  A
C2643      S2648   1.805       .  S
C2644      C2645   1.417       .  A
C2644      H2649   1.074       .  S
C2645      C2646   1.442       .  A
C2646      S2650   1.815       .  S
C2647      C2652   1.413       .  A
C2647      C2656   1.401       .  A
S2648      H2664   1.407       .  S
S2650      H2661   1.406       .  S
C2652      C2653   1.409       .  A
C2652      S2657   1.806       .  S
C2653      C2654   1.406       .  A
C2653      H2658   1.079       .  S
C2654      C2655   1.416       .  A
C2655      C2656   1.398       .  A
C2655      S2659   1.796       .  S
C2656      H2660   1.084       .  S
S2657      H2662   1.407       .  S
S2659      H2663   1.404       .  S
C2665      C2666   1.387       .  A
C2665      C2670   1.393       .  A
C2665      H2675   1.083       .  S
C2666      C2671   1.487       .  S
C2666      C2667   1.412       .  A
C2667      C2668   1.409       .  A
C2667      S2672   1.803       .  S
C2668      C2669   1.418       .  A
C2668      H2673   1.077       .  S
C2669      C2670   1.445       .  A
C2670      S2674   1.807       .  S
C2671      C2676   1.417       .  A
C2671      C2680   1.397       .  A
S2672      H2688   1.407       .  S
S2674      H2685   1.406       .  S
C2676      C2677   1.398       .  A
C2676      S2681   1.806       .  S
C2677      C2678   1.402       .  A
C2677      H2682   1.082       .  S
C2678      C2679   1.427       .  A
C2679      C2680   1.398       .  A
C2679      S2683   1.802       .  S
C2680      H2684   1.084       .  S
S2681      H2686   1.407       .  S
S2683      H2687   1.407       .  S
C2689      C2690   1.392       .  A
C2689      C2694   1.399       .  A
C2689      H2699   1.085       .  S
C2690      C2695   1.482       .  S
C2690      C2691   1.406       .  A
C2691      C2692   1.403       .  A
C2691      S2696   1.806       .  S
C2692      C2693   1.422       .  A
C2692      H2697   1.077       .  S
C2693      C2694   1.444       .  A
C2694      S2698   1.808       .  S
C2695      C2700   1.409       .  A
C2695      C2704   1.400       .  A
S2696      H2712   1.403       .  S
S2698      H2709   1.394   1_556  S
C2700      C2701   1.407       .  A
C2700      S2705   1.806       .  S
C2701      C2702   1.407       .  A
C2701      H2706   1.083       .  S
C2702      C2703   1.415       .  A
C2703      C2704   1.400       .  A
C2703      S2707   1.799       .  S
C2704      H2708   1.084       .  S
S2705      H2710   1.407       .  S
S2707      H2711   1.406       .  S
C2713      C2714   1.406       .  A
C2713      C2718   1.407       .  A
C2713      H2723   1.083       .  S
C2714      C2719   1.490       .  S
C2714      C2715   1.417       .  A
C2715      C2716   1.394       .  A
C2715      S2720   1.807       .  S
C2716      C2717   1.396       .  A
C2716      H2721   1.079       .  S
C2717      C2718   1.416       .  A
C2718      S2722   1.807       .  S
C2719      C2724   1.411       .  A
C2719      C2728   1.390       .  A
S2720      H2736   1.407       .  S
S2722      H2733   1.404       .  S
C2724      C2725   1.415       .  A
C2724      S2729   1.803       .  S
C2725      C2726   1.420       .  A
C2725      H2730   1.082       .  S
C2726      C2727   1.442       .  A
C2727      C2728   1.391       .  A
C2727      S2731   1.817       .  S
C2728      H2732   1.083       .  S
S2729      H2734   1.407       .  S
S2731      H2735   1.406       .  S
C2737      C2738   1.402       .  A
C2737      C2742   1.394       .  A
C2737      H2747   1.084       .  S
C2738      C2743   1.468       .  S
C2738      C2739   1.408       .  A
C2739      C2740   1.396       .  A
C2739      S2744   1.808       .  S
C2740      C2741   1.410       .  A
C2740      H2745   1.084       .  S
C2741      C2742   1.413       .  A
C2742      S2746   1.802       .  S
C2743      C2748   1.397       .  A
C2743      C2752   1.392       .  A
S2744      H2760   1.402       .  S
S2746      H2757   1.405       .  S
C2748      C2749   1.399       .  A
C2748      S2753   1.806       .  S
C2749      C2750   1.426       .  A
C2749      H2754   1.082       .  S
C2750      C2751   1.444       .  A
C2751      C2752   1.397       .  A
C2751      S2755   1.808       .  S
C2752      H2756   1.085       .  S
S2753      H2758   1.406       .  S
S2755      H2759   1.395       .  S
