geometry optimzed in LAMMPS
_audit_creation_date              2020-11-30 
_audit_creation_method            'lammps2cif' 
_symmetry_space_group_name_H-M    'P1' 
_symmetry_Int_Tables_number       1 
_symmetry_cell_setting            triclinic 
loop_ 
_symmetry_equiv_pos_as_xyz 
  x,y,z 
_cell_length_a                    32.95735516 
_cell_length_b                    43.85322378879574 
_cell_length_c                    32.94342271287795 
_cell_angle_alpha                 89.99880037316183 
_cell_angle_beta                  90.5216799518397 
_cell_angle_gamma                 90.17330104994981 
loop_ 
_atom_site_label 
_atom_site_type_symbol 
_atom_site_fract_x 
_atom_site_fract_y 
_atom_site_fract_z 
_atom_site_charge 
N1          N  0.45163785  0.46593371  0.42507086    -0.06300
N2          N  0.44578239  0.44308459  0.39964355    -0.58400
N3          N  0.42416668  0.03627237  0.45277488    -0.06000
N4          N  0.39865283  0.05899645  0.44663300    -0.60500
N5          N  0.45234306  0.03611920  0.42472963    -0.05600
N6          N  0.44663483  0.05882281  0.39899251    -0.58400
N7          N  0.42335549  0.46614821  0.45297116    -0.05200
N8          N  0.39758595  0.44344451  0.44698032    -0.60900
C9          C  0.41196527  0.42921628  0.41360644     0.95900
C10         C  0.41306723  0.07289763  0.41303830     0.95700
N11         N  0.45247602  0.03629988  0.07721701    -0.06500
N12         N  0.44653901  0.05875451  0.10324203    -0.59000
N13         N  0.42372692  0.46619717  0.04855193    -0.04600
N14         N  0.39812800  0.44338438  0.05410789    -0.60200
N15         N  0.45213159  0.46607129  0.07685706    -0.06500
N16         N  0.44644550  0.44318973  0.10223287    -0.59200
N17         N  0.42444514  0.03663687  0.04850006    -0.04200
N18         N  0.39907394  0.05948814  0.05418287    -0.60300
Mn19       Mn  0.42255558  0.50134253  0.00070717     1.18400
C20         C  0.41322591  0.07304601  0.08840791     0.98000
C21         C  0.41267808  0.42918701  0.08768468     0.98600
N22         N  0.04751446  0.03550229  0.42463425    -0.06500
N23         N  0.05359722  0.05807200  0.39891530    -0.62800
N24         N  0.07506720  0.46495939  0.45343192    -0.05300
N25         N  0.10024009  0.44196003  0.44810154    -0.63500
N26         N  0.04700845  0.46504804  0.42481196    -0.06000
N27         N  0.05279574  0.44217850  0.39935458    -0.63100
N28         N  0.07607020  0.03530018  0.45267179    -0.04900
N29         N  0.10223179  0.05757649  0.44626492    -0.63800
Mn30       Mn  0.99949823  0.00061330  0.42325290     1.10700
C31         C  0.08800614  0.07180044  0.41252680     0.99200
C32         C  0.08617057  0.42779824  0.41419831     0.99300
N33         N  0.04760469  0.46565702  0.07676147    -0.06000
N34         N  0.05331999  0.44267747  0.10205731    -0.61400
N35         N  0.07604564  0.03612424  0.04837706    -0.05300
N36         N  0.10158805  0.05905660  0.05394668    -0.58100
N37         N  0.04829227  0.03599291  0.07687555    -0.06700
N38         N  0.05457080  0.05866578  0.10260620    -0.61000
N39         N  0.07571664  0.46574600  0.04870664    -0.05600
N40         N  0.10114698  0.44292953  0.05439513    -0.58200
Mn41       Mn  0.00011797  0.00097712  0.07808157     1.20200
Mn42       Mn  0.07703915  0.00058555  0.00084173     1.10100
Cl43       Cl  0.99975737  0.00090510  0.00061317    -0.86100
C44         C  0.08684315  0.42863839  0.08774935     0.96200
C45         C  0.08780309  0.07286741  0.08784267     0.96000
N46         N  0.29916476  0.28599758  0.17382595    -0.06300
N47         N  0.30468705  0.30894955  0.14853188    -0.58400
N48         N  0.32722464  0.21540211  0.20200806    -0.06000
N49         N  0.35233278  0.19233205  0.19672360    -0.60500
N50         N  0.29926199  0.21569984  0.17323225    -0.05600
N51         N  0.30498368  0.19299555  0.14755360    -0.58400
N52         N  0.32750308  0.28594455  0.20220198    -0.05200
N53         N  0.35292130  0.30888991  0.19674337    -0.60900
C54         C  0.33829666  0.32308369  0.16317895     0.95900
C55         C  0.33808351  0.17859205  0.16267602     0.95700
N56         N  0.29914404  0.21526598  0.32539240    -0.06500
N57         N  0.30487746  0.19238360  0.35084582    -0.59000
N58         N  0.32777610  0.28551228  0.29797887    -0.04600
N59         N  0.35353454  0.30815349  0.30438119    -0.60200
N60         N  0.29945499  0.28545437  0.32584806    -0.06500
N61         N  0.30527796  0.30807726  0.35166320    -0.59200
N62         N  0.32744998  0.21543756  0.29748634    -0.04200
N63         N  0.35307741  0.19275945  0.30342265    -0.60700
Mn64       Mn  0.32887310  0.25059721  0.24989217     1.18400
C65         C  0.33860512  0.17854541  0.33675526     0.98000
C66         C  0.33911347  0.32208584  0.33795611     0.98600
N67         N  0.20359642  0.21566604  0.17282406    -0.06500
N68         N  0.19792050  0.19278299  0.14730380    -0.62800
N69         N  0.17559687  0.28578779  0.20119230    -0.05300
N70         N  0.15003076  0.30851909  0.19551814    -0.63500
N71         N  0.20377918  0.28602970  0.17320634    -0.06000
N72         N  0.19798093  0.30903643  0.14797101    -0.63100
N73         N  0.17570890  0.21538141  0.20117775    -0.04900
N74         N  0.15067009  0.19212695  0.19573461    -0.63800
Mn75       Mn  0.25144197  0.25086966  0.17187543     1.10700
C76         C  0.16492025  0.17828564  0.16206611     0.99200
C77         C  0.16433041  0.32292195  0.16225058     0.99300
N78         N  0.20384236  0.28591732  0.32527838    -0.06000
N79         N  0.19778248  0.30848610  0.35111430    -0.61400
N80         N  0.17515661  0.21582054  0.29659411    -0.05300
N81         N  0.14913689  0.19337735  0.30262933    -0.58100
N82         N  0.20368753  0.21551486  0.32464593    -0.06700
N83         N  0.19774066  0.19271373  0.35000574    -0.61000
N84         N  0.17584828  0.28613873  0.29658947    -0.05600
N85         N  0.15043291  0.30894825  0.30226621    -0.58200
Mn86       Mn  0.25154323  0.25051940  0.32662993     1.20200
Mn87       Mn  0.17423829  0.25077792  0.24882223     1.10100
Cl88       Cl  0.25154264  0.25069742  0.24931340    -0.86100
C89         C  0.16431958  0.32283655  0.33645457     0.96200
C90         C  0.16344985  0.17894743  0.33617336     0.96000
C91         C  0.14577058  0.15116459  0.14290387    -0.05500
C92         C  0.13050470  0.15285677  0.10276517    -0.02600
C93         C  0.11119409  0.12733157  0.08491181     0.02400
C94         C  0.10734699  0.09987465  0.10695505    -0.05500
C95         C  0.12263385  0.09818276  0.14710832    -0.02600
C96         C  0.14205593  0.12369034  0.16491683     0.02400
C97         C  0.13353685  0.18118992  0.08023551     0.37000
C98         C  0.11935698  0.06993163  0.16977525     0.37000
C99         C  0.15994348  0.12122986  0.20519979     0.35400
C100        C  0.09346471  0.12980587  0.04456969     0.35400
N101        N  0.17456528  0.11922283  0.23716331    -0.39400
N102        N  0.07899072  0.13186369  0.01254836    -0.39400
N103        N  0.11673805  0.04740521  0.18788146    -0.38800
N104        N  0.13595238  0.20381871  0.06232818    -0.38800
C105        C  0.10776123  0.09897293  0.39272006    -0.05500
C106        C  0.09576045  0.10849962  0.35317391    -0.02600
C107        C  0.11315452  0.13467154  0.33516532     0.02400
C108        C  0.14383143  0.15163548  0.35575597    -0.05500
C109        C  0.15589965  0.14205193  0.39524956    -0.02600
C110        C  0.13858203  0.11585409  0.41320493     0.02400
C111        C  0.06632277  0.09101371  0.32962942     0.37000
C112        C  0.18545412  0.15944206  0.41877944     0.37000
C113        C  0.15337062  0.10661180  0.45302014     0.35400
C114        C  0.09875604  0.14372929  0.29513251     0.35400
N115        N  0.16582270  0.09946922  0.48457833    -0.39400
N116        N  0.08666269  0.15070075  0.26336785    -0.39400
N117        N  0.20888772  0.17312541  0.43786528    -0.38800
N118        N  0.04300962  0.07724079  0.31050934    -0.38800
C119        C  0.14470806  0.35006496  0.14319704    -0.05500
C120        C  0.12670031  0.37278805  0.16762976    -0.02600
C121        C  0.10757915  0.39823635  0.14957698     0.02400
C122        C  0.10631566  0.40142836  0.10682091    -0.05500
C123        C  0.12433058  0.37869706  0.08239510    -0.02600
C124        C  0.14327816  0.35317915  0.10044675     0.02400
C125        C  0.12894497  0.37079057  0.21159874     0.37000
C126        C  0.12228175  0.38074478  0.03842749     0.37000
C127        C  0.15977435  0.32952146  0.07460055     0.35400
C128        C  0.09061792  0.42168910  0.17544311     0.35400
N129        N  0.17281258  0.31068921  0.05388813    -0.39400
N130        N  0.07713471  0.44032879  0.19617379    -0.39400
N131        N  0.12084647  0.38211752  0.00335987    -0.38800
N132        N  0.13057900  0.36944091  0.24666322    -0.38800
C133        C  0.39416844  0.10006652  0.10755625    -0.05500
C134        C  0.37923760  0.09831288  0.14757296    -0.02600
C135        C  0.36078339  0.12395964  0.16557722     0.02400
C136        C  0.35711728  0.15151814  0.14366499    -0.05500
C137        C  0.37202204  0.15325544  0.10365137    -0.02600
C138        C  0.39058538  0.12764982  0.08570575     0.02400
C139        C  0.38162332  0.06979491  0.16977229     0.37000
C140        C  0.36954370  0.18174974  0.08140371     0.37000
C141        C  0.40749384  0.13005221  0.04529918     0.35400
C142        C  0.34421296  0.12165907  0.20614312     0.35400
N143        N  0.42122715  0.13196293  0.01318289    -0.39400
N144        N  0.33081846  0.11983033  0.23841565    -0.39400
N145        N  0.36765059  0.20451809  0.06373242    -0.38800
N146        N  0.38340854  0.04701527  0.18743048    -0.38800
C147        C  0.39294041  0.40192027  0.39433246    -0.05500
C148        C  0.37632835  0.37842685  0.41853195    -0.02600
C149        C  0.35908704  0.35229695  0.40016752     0.02400
C150        C  0.35793018  0.34942545  0.35735658    -0.05500
C151        C  0.37439388  0.37298728  0.33317009    -0.02600
C152        C  0.39168878  0.39908153  0.35152887     0.02400
C153        C  0.37799686  0.38048202  0.46252333     0.37000
C154        C  0.37230723  0.37112823  0.28917744     0.37000
C155        C  0.40654570  0.42359043  0.32596012     0.35400
C156        C  0.34402761  0.32786020  0.42572636     0.35400
N157        N  0.41823721  0.44308349  0.30542210    -0.39400
N158        N  0.33214027  0.30844342  0.44627859    -0.39400
N159        N  0.37074485  0.36978674  0.25410696    -0.38800
N160        N  0.37914950  0.38201236  0.49759339    -0.38800
C161        C  0.35773576  0.15140906  0.35592975    -0.05500
C162        C  0.33360967  0.12623252  0.36752210    -0.02600
C163        C  0.35159189  0.10071839  0.38652736     0.02400
C164        C  0.39399343  0.09992746  0.39353132    -0.05500
C165        C  0.41818147  0.12496346  0.38151857    -0.02600
C166        C  0.40013600  0.15061130  0.36290622     0.02400
C167        C  0.29047635  0.12585446  0.35809990     0.37000
C168        C  0.46155011  0.12495525  0.38973132     0.37000
C169        C  0.42524598  0.17660908  0.35228687     0.35400
C170        C  0.32644182  0.07480962  0.39742620     0.35400
N171        N  0.44540509  0.19728966  0.34391549    -0.39400
N172        N  0.30625220  0.05420674  0.40605476    -0.39400
N173        N  0.49610353  0.12501534  0.39634117    -0.38800
N174        N  0.25616272  0.12545149  0.35030234    -0.38800
C175        C  0.10605424  0.40068116  0.39468995    -0.05500
C176        C  0.08291283  0.37942594  0.37166031    -0.02600
C177        C  0.10183040  0.35430491  0.35263218     0.02400
C178        C  0.14432499  0.34974208  0.35632750    -0.05500
C179        C  0.16742576  0.37088742  0.37956604    -0.02600
C180        C  0.14851546  0.39599351  0.39860393     0.02400
C181        C  0.03912104  0.38245051  0.36851712     0.37000
C182        C  0.21117311  0.36769179  0.38309634     0.37000
C183        C  0.17354848  0.41740643  0.42136182     0.35400
C184        C  0.07679267  0.33264106  0.33030724     0.35400
N185        N  0.19363259  0.43433362  0.43959897    -0.39400
N186        N  0.05672926  0.31545386  0.31248500    -0.39400
N187        N  0.24605123  0.36541811  0.38617410    -0.38800
N188        N  0.00419517  0.38455067  0.36581080    -0.38800
C189        C  0.39359453  0.40194133  0.10673459    -0.05500
C190        C  0.35094079  0.40008857  0.11069657    -0.02600
C191        C  0.33291565  0.37445076  0.12927295     0.02400
C192        C  0.35732232  0.35031174  0.14403982    -0.05500
C193        C  0.39995541  0.35212437  0.13995947    -0.02600
C194        C  0.41798745  0.37779390  0.12148928     0.02400
C195        C  0.32543725  0.42513553  0.09726156     0.37000
C196        C  0.42543191  0.32701169  0.15321500     0.37000
C197        C  0.46170575  0.37868236  0.11645297     0.35400
C198        C  0.28921913  0.37363111  0.13452794     0.35400
N199        N  0.49656455  0.37925990  0.11251633    -0.39400
N200        N  0.25438530  0.37314693  0.13869189    -0.39400
N201        N  0.44579784  0.30698865  0.16367492    -0.38800
N202        N  0.30503096  0.44509550  0.08666095    -0.38800
N203        N  0.45163615  0.46593421  0.92507076    -0.06300
N204        N  0.44578058  0.44308481  0.89964405    -0.58400
N205        N  0.42416439  0.03627315  0.95277438    -0.06000
N206        N  0.39865112  0.05899746  0.94663308    -0.60500
N207        N  0.45234081  0.03612008  0.92472907    -0.05600
N208        N  0.44663289  0.05882402  0.89899239    -0.58400
N209        N  0.42335389  0.46614883  0.95297134    -0.05200
N210        N  0.39758428  0.44344482  0.94698090    -0.60900
C211        C  0.41196408  0.42921666  0.91360711     0.95900
C212        C  0.41306548  0.07289927  0.91303877     0.95700
N213        N  0.45247762  0.03629937  0.57721754    -0.06500
N214        N  0.44654120  0.05875396  0.60324287    -0.59000
N215        N  0.42372804  0.46619689  0.54855200    -0.04600
N216        N  0.39812850  0.44338463  0.55410688    -0.60200
N217        N  0.45213199  0.46607061  0.57685702    -0.06500
N218        N  0.44644539  0.44318911  0.60223288    -0.59200
N219        N  0.42444683  0.03663661  0.54850075    -0.04200
N220        N  0.39907611  0.05948791  0.55418369    -0.60300
Mn221      Mn  0.42255715  0.50134210  0.50070728     1.18400
C222        C  0.41322799  0.07304598  0.58840855     0.98000
C223        C  0.41267729  0.42918662  0.58768381     0.98600
N224        N  0.04751199  0.03550328  0.92463390    -0.06500
N225        N  0.05359194  0.05807455  0.89891638    -0.62800
N226        N  0.07506622  0.46496060  0.95343021    -0.05300
N227        N  0.10024005  0.44196230  0.94809898    -0.63500
N228        N  0.04700726  0.46504910  0.92481057    -0.06000
N229        N  0.05279530  0.44218034  0.89935237    -0.63100
N230        N  0.07606784  0.03530149  0.95267073    -0.04900
N231        N  0.10222728  0.05757943  0.94626544    -0.63800
Mn232      Mn  0.99949622  0.00061403  0.92325213     1.10700
C233        C  0.08800026  0.07180431  0.91252865     0.99200
C234        C  0.08617122  0.42780028  0.91419551     0.99300
N235        N  0.04760546  0.46565660  0.57676256    -0.06000
N236        N  0.05332014  0.44267719  0.60205860    -0.61400
N237        N  0.07604641  0.03612361  0.54837806    -0.05300
N238        N  0.10158828  0.05905633  0.55394712    -0.58100
N239        N  0.04829299  0.03599235  0.57687635    -0.06700
N240        N  0.05457079  0.05866545  0.60260650    -0.61000
N241        N  0.07571722  0.46574556  0.54870823    -0.05600
N242        N  0.10114764  0.44292929  0.55439654    -0.58200
Mn243      Mn  0.00011893  0.00097644  0.57808246     1.20200
Mn244      Mn  0.07704047  0.00058468  0.50084283     1.10100
Cl245      Cl  0.99975876  0.00090436  0.50061403    -0.86100
C246        C  0.08684360  0.42863778  0.58775077     0.96200
C247        C  0.08780270  0.07286745  0.58784304     0.96000
N248        N  0.29916292  0.28599772  0.67382350    -0.06300
N249        N  0.30468502  0.30894940  0.64852843    -0.58400
N250        N  0.32722406  0.21540309  0.70200605    -0.06000
N251        N  0.35233331  0.19233348  0.69672152    -0.60500
N252        N  0.29926123  0.21570011  0.67323061    -0.05600
N253        N  0.30498361  0.19299604  0.64755202    -0.58400
N254        N  0.32750158  0.28594539  0.70219958    -0.05200
N255        N  0.35291931  0.30889090  0.69673984    -0.60900
C256        C  0.33829437  0.32308365  0.66317563     0.95900
C257        C  0.33808356  0.17859312  0.66267337     0.95700
N258        N  0.29914307  0.21526737  0.82539065    -0.06500
N259        N  0.30487670  0.19238534  0.85084462    -0.59000
N260        N  0.32777492  0.28551347  0.79797712    -0.04600
N261        N  0.35353387  0.30815451  0.80438031    -0.60200
N262        N  0.29945414  0.28545520  0.82584667    -0.06500
N263        N  0.30527763  0.30807772  0.85166258    -0.59200
N264        N  0.32744918  0.21543881  0.79748467    -0.04200
N265        N  0.35307663  0.19276086  0.80342154    -0.60700
Mn266      Mn  0.32887210  0.25059835  0.74989034     1.18400
C267        C  0.33860444  0.17854710  0.83675400     0.98000
C268        C  0.33911313  0.32208607  0.83795574     0.98600
N269        N  0.20359528  0.21566627  0.67282353    -0.06500
N270        N  0.19791898  0.19278329  0.64730345    -0.62800
N271        N  0.17559650  0.28578807  0.70119110    -0.05300
N272        N  0.15003126  0.30851993  0.69551677    -0.63500
N273        N  0.20377888  0.28602938  0.67320445    -0.06000
N274        N  0.19798095  0.30903645  0.64796939    -0.63100
N275        N  0.17570784  0.21538208  0.70117720    -0.04900
N276        N  0.15066854  0.19212802  0.69573432    -0.63800
Mn277      Mn  0.25144074  0.25086972  0.67187395     1.10700
C278        C  0.16491824  0.17828652  0.66206571     0.99200
C279        C  0.16433137  0.32292200  0.66224942     0.99300
N280        N  0.20384218  0.28591856  0.82527700    -0.06000
N281        N  0.19778266  0.30848799  0.85111219    -0.61400
N282        N  0.17515503  0.21582205  0.79659344    -0.05300
N283        N  0.14913349  0.19338026  0.80262997    -0.58100
N284        N  0.20368582  0.21551607  0.82464531    -0.06700
N285        N  0.19773668  0.19271599  0.85000687    -0.61000
N286        N  0.17584798  0.28614009  0.79658767    -0.05600
N287        N  0.15043345  0.30895044  0.80226405    -0.58200
Mn288      Mn  0.25154221  0.25052038  0.82662851     1.20200
Mn289      Mn  0.17423761  0.25077899  0.74882110     1.10100
Cl290      Cl  0.25154182  0.25069811  0.74931194    -0.86100
C291        C  0.16432078  0.32283834  0.83645202     0.96200
C292        C  0.16344429  0.17895120  0.83617491     0.96000
C293        C  0.14576803  0.15116529  0.64290414    -0.05500
C294        C  0.13050846  0.15285597  0.60276292    -0.02600
C295        C  0.11119873  0.12733018  0.58490942     0.02400
C296        C  0.10734606  0.09987510  0.60695497    -0.05500
C297        C  0.12262627  0.09818491  0.64711110    -0.02600
C298        C  0.14204795  0.12369292  0.66491950     0.02400
C299        C  0.13354503  0.18118783  0.58023116     0.37000
C300        C  0.11934417  0.06993547  0.66978074     0.37000
C301        C  0.15992900  0.12123387  0.70520551     0.35400
C302        C  0.09347670  0.12980279  0.54456395     0.35400
N303        N  0.17454607  0.11922808  0.73717139    -0.39400
N304        N  0.07900858  0.13185932  0.51253976    -0.39400
N305        N  0.11672109  0.04741044  0.68788902    -0.38800
N306        N  0.13596402  0.20381547  0.56232210    -0.38800
C307        C  0.10775161  0.09897857  0.89272361    -0.05500
C308        C  0.09574929  0.10850680  0.85317850    -0.02600
C309        C  0.11314334  0.13467853  0.83517005     0.02400
C310        C  0.14382274  0.15164113  0.85575959    -0.05500
C311        C  0.15588908  0.14205848  0.89525389    -0.02600
C312        C  0.13857102  0.11586109  0.91320961     0.02400
C313        C  0.06630825  0.09102306  0.82963551     0.37000
C314        C  0.18544107  0.15945006  0.91878472     0.37000
C315        C  0.15335528  0.10662112  0.95302748     0.35400
C316        C  0.09874065  0.14373883  0.79513966     0.35400
N317        N  0.16580367  0.09948064  0.98458774    -0.39400
N318        N  0.08664390  0.15071247  0.76337739    -0.39400
N319        N  0.20887248  0.17313500  0.93787186    -0.38800
N320        N  0.04299157  0.07725193  0.81051683    -0.38800
C321        C  0.14470974  0.35006557  0.64319621    -0.05500
C322        C  0.12670410  0.37278908  0.66762989    -0.02600
C323        C  0.10758144  0.39823657  0.64957781     0.02400
C324        C  0.10631526  0.40142840  0.60682164    -0.05500
C325        C  0.12432858  0.37869626  0.58239516    -0.02600
C326        C  0.14327753  0.35317913  0.60044614     0.02400
C327        C  0.12895366  0.37079278  0.71159869     0.37000
C328        C  0.12227474  0.38074293  0.53842761     0.37000
C329        C  0.15977392  0.32952173  0.57459936     0.35400
C330        C  0.09062001  0.42168905  0.67544439     0.35400
N331        N  0.17281249  0.31068998  0.55388635    -0.39400
N332        N  0.07713630  0.44032821  0.69617575    -0.39400
N333        N  0.12083519  0.38211452  0.50335998    -0.38800
N334        N  0.13059205  0.36944411  0.74666312    -0.38800
C335        C  0.39417122  0.10006698  0.60755658    -0.05500
C336        C  0.37925066  0.09831658  0.64757780    -0.02600
C337        C  0.36079527  0.12396357  0.66558048     0.02400
C338        C  0.35711792  0.15151876  0.64366369    -0.05500
C339        C  0.37201237  0.15325290  0.60364520    -0.02600
C340        C  0.39057718  0.12764720  0.58570124     0.02400
C341        C  0.38164838  0.06980196  0.66978337     0.37000
C342        C  0.36952108  0.18174351  0.58139101     0.37000
C343        C  0.40747759  0.13004720  0.54529080     0.35400
C344        C  0.34423379  0.12166540  0.70615049     0.35400
N345        N  0.42120473  0.13195616  0.51317151    -0.39400
N346        N  0.33084610  0.11983856  0.73842629    -0.39400
N347        N  0.36761758  0.20450870  0.56371387    -0.38800
N348        N  0.38344322  0.04702512  0.68744691    -0.38800
C349        C  0.39293880  0.40192055  0.89433346    -0.05500
C350        C  0.37632748  0.37842702  0.91853256    -0.02600
C351        C  0.35908628  0.35229701  0.90016783     0.02400
C352        C  0.35792998  0.34942580  0.85735683    -0.05500
C353        C  0.37439348  0.37298772  0.83317069    -0.02600
C354        C  0.39168692  0.39908248  0.85152973     0.02400
C355        C  0.37799574  0.38048194  0.96252402     0.37000
C356        C  0.37230815  0.37112866  0.78917803     0.37000
C357        C  0.40654127  0.42359245  0.82596140     0.35400
C358        C  0.34402639  0.32786028  0.92572655     0.35400
N359        N  0.41823031  0.44308656  0.80542411    -0.39400
N360        N  0.33213869  0.30844377  0.94627886    -0.39400
N361        N  0.37074732  0.36978722  0.75410747    -0.38800
N362        N  0.37914855  0.38201250  0.99759418    -0.38800
C363        C  0.35773468  0.15141080  0.85592961    -0.05500
C364        C  0.33360809  0.12623563  0.86752482    -0.02600
C365        C  0.35159004  0.10072130  0.88653017     0.02400
C366        C  0.39399205  0.09992943  0.89353215    -0.05500
C367        C  0.41818016  0.12496519  0.88151894    -0.02600
C368        C  0.40013506  0.15061287  0.86290549     0.02400
C369        C  0.29047359  0.12585945  0.85810836     0.37000
C370        C  0.46154815  0.12495811  0.88973467     0.37000
C371        C  0.42524517  0.17661072  0.85228642     0.35400
C372        C  0.32643875  0.07481412  0.89743283     0.35400
N373        N  0.44540359  0.19729160  0.84391565    -0.39400
N374        N  0.30624830  0.05421279  0.90606489    -0.39400
N375        N  0.49610113  0.12501922  0.89634775    -0.38800
N376        N  0.25615858  0.12545851  0.85031599    -0.38800
C377        C  0.10605519  0.40068376  0.89468674    -0.05500
C378        C  0.08291390  0.37942843  0.87165719    -0.02600
C379        C  0.10183187  0.35430723  0.85262916     0.02400
C380        C  0.14432581  0.34974478  0.85632488    -0.05500
C381        C  0.16742694  0.37088938  0.87956388    -0.02600
C382        C  0.14851631  0.39599587  0.89860149     0.02400
C383        C  0.03912211  0.38245217  0.86851491     0.37000
C384        C  0.21117382  0.36769281  0.88309658     0.37000
C385        C  0.17354926  0.41740828  0.92136047     0.35400
C386        C  0.07679376  0.33264315  0.83030496     0.35400
N387        N  0.19363317  0.43433467  0.93959873    -0.39400
N388        N  0.05673062  0.31545542  0.81248366    -0.39400
N389        N  0.24605157  0.36541793  0.88617649    -0.38800
N390        N  0.00419606  0.38455172  0.86580986    -0.38800
C391        C  0.39359363  0.40194111  0.60673217    -0.05500
C392        C  0.35093953  0.40008925  0.61069496    -0.02600
C393        C  0.33291401  0.37445110  0.62927037     0.02400
C394        C  0.35732000  0.35031142  0.64403484    -0.05500
C395        C  0.39995296  0.35212209  0.63995193    -0.02600
C396        C  0.41798549  0.37779202  0.62148313     0.02400
C397        C  0.32543683  0.42513713  0.59726122     0.37000
C398        C  0.42542807  0.32700712  0.65320190     0.37000
C399        C  0.46170342  0.37867911  0.61644356     0.35400
C400        C  0.28921745  0.37363197  0.63452536     0.35400
N401        N  0.49656211  0.37925547  0.61250409    -0.39400
N402        N  0.25438337  0.37314803  0.63868926    -0.39400
N403        N  0.44579265  0.30698214  0.66365701    -0.38800
N404        N  0.30503108  0.44509748  0.58666146    -0.38800
N405        N  0.45166049  0.96593205  0.42504486    -0.06300
N406        N  0.44580416  0.94308709  0.39961107    -0.58400
N407        N  0.42415209  0.53627258  0.45280478    -0.06000
N408        N  0.39863553  0.55899443  0.44666197    -0.60500
N409        N  0.45232078  0.53611669  0.42475250    -0.05600
N410        N  0.44659938  0.55881113  0.39900555    -0.58400
N411        N  0.42336893  0.96615044  0.45293587    -0.05200
N412        N  0.39759217  0.94345331  0.44693207    -0.60900
C413        C  0.41197751  0.92922565  0.41356060     0.95900
C414        C  0.41303574  0.57288870  0.41305500     0.95700
N415        N  0.45247861  0.53630723  0.07723894    -0.06500
N416        N  0.44653805  0.55876209  0.10326313    -0.59000
N417        N  0.42372682  0.96619125  0.04851515    -0.04600
N418        N  0.39812712  0.94337757  0.05406521    -0.60200
N419        N  0.45212845  0.96606312  0.07682326    -0.06500
N420        N  0.44643888  0.94317986  0.10219542    -0.59200
N421        N  0.42444289  0.53663891  0.04852640    -0.04200
N422        N  0.39906541  0.55948544  0.05421101    -0.60300
Mn423      Mn  0.42256230  0.00134141  0.00067523     1.18400
C424        C  0.41321777  0.57304750  0.08843228     0.98000
C425        C  0.41267365  0.92917728  0.08764164     0.98600
N426        N  0.04752514  0.53549920  0.42463480    -0.06500
N427        N  0.05360701  0.55807175  0.39891836    -0.62800
N428        N  0.07507706  0.96497410  0.45344470    -0.05300
N429        N  0.10026777  0.94198467  0.44811550    -0.63500
N430        N  0.04702385  0.96505760  0.42481912    -0.06000
N431        N  0.05283247  0.94219393  0.39935925    -0.63100
N432        N  0.07608982  0.53529003  0.45266390    -0.04900
N433        N  0.10225912  0.55756176  0.44625317    -0.63800
Mn434      Mn  0.99949735  0.50060885  0.42326231     1.10700
C435        C  0.08802720  0.57179130  0.41252168     0.99200
C436        C  0.08621242  0.92782218  0.41420686     0.99300
N437        N  0.04757231  0.96567114  0.07676482    -0.06000
N438        N  0.05328993  0.94269567  0.10206694    -0.61400
N439        N  0.07608187  0.53611232  0.04837491    -0.05300
N440        N  0.10161833  0.55905023  0.05393747    -0.58100
N441        N  0.04833321  0.53598030  0.07687817    -0.06700
N442        N  0.05460887  0.55865586  0.10260480    -0.61000
N443        N  0.07569237  0.96576448  0.04871887    -0.05600
N444        N  0.10113144  0.94295593  0.05441880    -0.58200
Mn445      Mn  0.00015688  0.50096892  0.07809422     1.20200
Mn446      Mn  0.07705842  0.50057170  0.00083228     1.10100
Cl447      Cl  0.99977691  0.50090018  0.00062439    -0.86100
C448        C  0.08682433  0.92866374  0.08777046     0.96200
C449        C  0.08783406  0.57286146  0.08783502     0.96000
N450        N  0.29913922  0.78601551  0.17383329    -0.06300
N451        N  0.30464978  0.80897886  0.14855427    -0.58400
N452        N  0.32720164  0.71541105  0.20200496    -0.06000
N453        N  0.35230578  0.69233751  0.19672817    -0.60500
N454        N  0.29924308  0.71571165  0.17322528    -0.05600
N455        N  0.30496421  0.69300365  0.14755129    -0.58400
N456        N  0.32747919  0.78595703  0.20220701    -0.05200
N457        N  0.35288561  0.80891153  0.19676324    -0.60900
C458        C  0.33825403  0.82311553  0.16320946     0.95900
C459        C  0.33805813  0.67859634  0.16268155     0.95700
N460        N  0.29911805  0.71527128  0.32539145    -0.06500
N461        N  0.30484093  0.69239022  0.35084809    -0.59000
N462        N  0.32776060  0.78551635  0.29796538    -0.04600
N463        N  0.35350928  0.80816821  0.30434342    -0.60200
N464        N  0.29944273  0.78546257  0.32583712    -0.06500
N465        N  0.30525891  0.80809986  0.35163160    -0.59200
N466        N  0.32741936  0.71543295  0.29748142    -0.04200
N467        N  0.35302938  0.69274339  0.30341599    -0.60700
Mn468      Mn  0.32885157  0.75060045  0.24988813     1.18400
C469        C  0.33855475  0.67853549  0.33675485     0.98000
C470        C  0.33908593  0.82211147  0.33790843     0.98600
N471        N  0.20357917  0.71568695  0.17280865    -0.06500
N472        N  0.19791291  0.69280720  0.14728098    -0.62800
N473        N  0.17557980  0.78580714  0.20120207    -0.05300
N474        N  0.15001933  0.80854409  0.19553789    -0.63500
N475        N  0.20376135  0.78605105  0.17321477    -0.06000
N476        N  0.19796770  0.80906482  0.14798971    -0.63100
N477        N  0.17568950  0.71539509  0.20116074    -0.04900
N478        N  0.15065822  0.69213662  0.19570746    -0.63800
Mn479      Mn  0.25142222  0.75088742  0.17187312     1.10700
C480        C  0.16491557  0.67830321  0.16203528     0.99200
C481        C  0.16432133  0.82295226  0.16227501     0.99300
N482        N  0.20383786  0.78592072  0.32528494    -0.06000
N483        N  0.19779342  0.80849116  0.35112181    -0.61400
N484        N  0.17513383  0.71582497  0.29659001    -0.05300
N485        N  0.14910852  0.69338444  0.30262712    -0.58100
N486        N  0.20366740  0.71551666  0.32464073    -0.06700
N487        N  0.19771953  0.69271404  0.34999904    -0.61000
N488        N  0.17583987  0.78614644  0.29660017    -0.05600
N489        N  0.15043688  0.80896302  0.30228085    -0.58200
Mn490      Mn  0.25152794  0.75052391  0.32662753     1.20200
Mn491      Mn  0.17421894  0.75078839  0.24882203     1.10100
Cl492      Cl  0.25152290  0.75070488  0.24931095    -0.86100
C493        C  0.16433531  0.82284874  0.33646719     0.96200
C494        C  0.16342303  0.67895355  0.33616977     0.96000
C495        C  0.14578686  0.65117445  0.14287035    -0.05500
C496        C  0.13043869  0.65287913  0.10276334    -0.02600
C497        C  0.11111338  0.62735268  0.08492699     0.02400
C498        C  0.10736780  0.59987518  0.10694102    -0.05500
C499        C  0.12274538  0.59816896  0.14705906    -0.02600
C500        C  0.14217181  0.62368012  0.16485424     0.02400
C501        C  0.13342475  0.68121864  0.08024226     0.37000
C502        C  0.11953422  0.56990633  0.16970958     0.37000
C503        C  0.16017466  0.62120287  0.20508457     0.35400
C504        C  0.09324985  0.62984748  0.04464556     0.35400
N505        N  0.17489168  0.61918370  0.23700363    -0.39400
N506        N  0.07866130  0.63192029  0.01267711    -0.39400
N507        N  0.11696080  0.54737233  0.18780553    -0.38800
N508        N  0.13581294  0.70384961  0.06233615    -0.38800
C509        C  0.10778079  0.59896298  0.39271510    -0.05500
C510        C  0.09588311  0.60841737  0.35310872    -0.02600
C511        C  0.11324773  0.63460143  0.33510232     0.02400
C512        C  0.14380499  0.65164320  0.35575461    -0.05500
C513        C  0.15576794  0.64213439  0.39531040    -0.02600
C514        C  0.13848619  0.61592073  0.41326029     0.02400
C515        C  0.06660663  0.59082985  0.32949900     0.37000
C516        C  0.18515455  0.65963054  0.41891025     0.37000
C517        C  0.15319401  0.60673805  0.45312847     0.35400
C518        C  0.09894370  0.64359329  0.29501073     0.35400
N519        N  0.16559208  0.59964066  0.48472567    -0.39400
N520        N  0.08691835  0.65051419  0.26320111    -0.39400
N521        N  0.20845261  0.67340334  0.43804748    -0.38800
N522        N  0.04342314  0.57697118  0.31033153    -0.38800
C523        C  0.14469811  0.85009698  0.14322363    -0.05500
C524        C  0.12667793  0.87281604  0.16765502    -0.02600
C525        C  0.10755562  0.89826344  0.14960106     0.02400
C526        C  0.10630077  0.90145829  0.10684518    -0.05500
C527        C  0.12433215  0.87873313  0.08242127    -0.02600
C528        C  0.14328011  0.85321665  0.10047312     0.02400
C529        C  0.12891134  0.87081572  0.21162399     0.37000
C530        C  0.12230363  0.88078864  0.03845316     0.37000
C531        C  0.15979045  0.82956600  0.07462492     0.35400
C532        C  0.09058718  0.92171568  0.17546380     0.35400
N533        N  0.17283909  0.81074062  0.05390822    -0.39400
N534        N  0.07709919  0.94035665  0.19618971    -0.39400
N535        N  0.12088683  0.88216886  0.00338534    -0.38800
N536        N  0.13053544  0.86946573  0.24668898    -0.38800
C537        C  0.39415515  0.60006783  0.10757640    -0.05500
C538        C  0.37924974  0.59832294  0.14760369    -0.02600
C539        C  0.36079420  0.62397086  0.16560458     0.02400
C540        C  0.35709611  0.65152031  0.14367700    -0.05500
C541        C  0.37198367  0.65325058  0.10365615    -0.02600
C542        C  0.39054435  0.62764315  0.08571248     0.02400
C543        C  0.38166272  0.56981219  0.16981676     0.37000
C544        C  0.36950561  0.68174356  0.08140571     0.37000
C545        C  0.40742186  0.63003650  0.04529164     0.35400
C546        C  0.34426705  0.62168189  0.20618965     0.35400
N547        N  0.42112867  0.63193993  0.01316303    -0.39400
N548        N  0.33091169  0.61986230  0.23847967    -0.39400
N549        N  0.36761742  0.70451285  0.06373626    -0.38800
N550        N  0.38347011  0.54703765  0.18748436    -0.38800
C551        C  0.39294955  0.90193339  0.39428110    -0.05500
C552        C  0.37633014  0.87844281  0.41847846    -0.02600
C553        C  0.35907748  0.85231837  0.40011313     0.02400
C554        C  0.35791292  0.84945042  0.35730233    -0.05500
C555        C  0.37439123  0.87300718  0.33311641    -0.02600
C556        C  0.39170236  0.89909580  0.35147720     0.02400
C557        C  0.37800720  0.88049204  0.46246995     0.37000
C558        C  0.37230868  0.87114919  0.28912369     0.37000
C559        C  0.40658660  0.92359781  0.32591208     0.35400
C560        C  0.34401881  0.82788085  0.42567071     0.35400
N561        N  0.41830266  0.94308575  0.30537976    -0.39400
N562        N  0.33213215  0.80846151  0.44621848    -0.39400
N563        N  0.37075274  0.86981277  0.25405248    -0.38800
N564        N  0.37916757  0.88201684  0.49754027    -0.38800
C565        C  0.35768169  0.65140004  0.35594674    -0.05500
C566        C  0.33353339  0.62628552  0.36773567    -0.02600
C567        C  0.35152770  0.60076487  0.38671560     0.02400
C568        C  0.39395534  0.59991600  0.39354148    -0.05500
C569        C  0.41815983  0.62489352  0.38134871    -0.02600
C570        C  0.40010861  0.65054096  0.36274246     0.02400
C571        C  0.29034752  0.62597575  0.35856511     0.37000
C572        C  0.46156565  0.62482765  0.38935223     0.37000
C573        C  0.42525002  0.67648228  0.35195714     0.35400
C574        C  0.32635726  0.57489956  0.39775020     0.35400
N575        N  0.44543519  0.69711772  0.34345626    -0.39400
N576        N  0.30615469  0.55432806  0.40647827    -0.39400
N577        N  0.49615058  0.62484362  0.39578607    -0.38800
N578        N  0.25598654  0.62562314  0.35098413    -0.38800
C579        C  0.10609791  0.90070273  0.39470657    -0.05500
C580        C  0.08295283  0.87945285  0.37167214    -0.02600
C581        C  0.10186230  0.85432877  0.35264699     0.02400
C582        C  0.14435361  0.84975766  0.35634456    -0.05500
C583        C  0.16746281  0.87090072  0.37957994    -0.02600
C584        C  0.14855844  0.89600997  0.39862048     0.02400
C585        C  0.03916527  0.88249445  0.36850215     0.37000
C586        C  0.21121265  0.86770755  0.38308554     0.37000
C587        C  0.17359815  0.91742704  0.42136401     0.35400
C588        C  0.07681893  0.83267842  0.33030530     0.35400
N589        N  0.19369162  0.93435846  0.43958416    -0.39400
N590        N  0.05675114  0.81550466  0.31246492    -0.39400
N591        N  0.24609325  0.86543698  0.38613647    -0.38800
N592        N  0.00424361  0.88461316  0.36576965    -0.38800
C593        C  0.39357788  0.90193966  0.10670278    -0.05500
C594        C  0.35092280  0.90009586  0.11066197    -0.02600
C595        C  0.33288879  0.87447313  0.12926864     0.02400
C596        C  0.35728738  0.85033920  0.14406448    -0.05500
C597        C  0.39992245  0.85214858  0.14000096    -0.02600
C598        C  0.41796281  0.87780139  0.12149861     0.02400
C599        C  0.32542894  0.92514239  0.09720653     0.37000
C600        C  0.42539640  0.82705566  0.15332938     0.37000
C601        C  0.46168432  0.87868450  0.11648739     0.35400
C602        C  0.28919419  0.87367189  0.13454294     0.35400
N603        N  0.49654644  0.87925564  0.11257657    -0.39400
N604        N  0.25436261  0.87320602  0.13872816    -0.39400
N605        N  0.44575741  0.80704962  0.16385725    -0.38800
N606        N  0.30503239  0.94510406  0.08659268    -0.38800
N607        N  0.45165880  0.96593248  0.92504474    -0.06300
N608        N  0.44580282  0.94308750  0.89961141    -0.58400
N609        N  0.42414991  0.53627336  0.95280439    -0.06000
N610        N  0.39863378  0.55899555  0.94666186    -0.60500
N611        N  0.45231843  0.53611742  0.92475186    -0.05600
N612        N  0.44659741  0.55881234  0.89900533    -0.58400
N613        N  0.42336738  0.96615099  0.95293568    -0.05200
N614        N  0.39759099  0.94345376  0.94693269    -0.60900
C615        C  0.41197614  0.92922560  0.91356123     0.95900
C616        C  0.41303401  0.57289005  0.91305528     0.95700
N617        N  0.45248007  0.53630661  0.57723945    -0.06500
N618        N  0.44654003  0.55876154  0.60326379    -0.59000
N619        N  0.42372801  0.96619110  0.54851521    -0.04600
N620        N  0.39812751  0.94337780  0.55406448    -0.60200
N621        N  0.45212902  0.96606268  0.57682364    -0.06500
N622        N  0.44643872  0.94317929  0.60219548    -0.59200
N623        N  0.42444443  0.53663848  0.54852709    -0.04200
N624        N  0.39906744  0.55948519  0.55421163    -0.60300
Mn625      Mn  0.42256402  0.00134098  0.50067536     1.18400
C626        C  0.41321980  0.57304734  0.58843277     0.98000
C627        C  0.41267345  0.92917718  0.58764136     0.98600
N628        N  0.04752227  0.53550025  0.92463418    -0.06500
N629        N  0.05360188  0.55807440  0.89891952    -0.62800
N630        N  0.07507628  0.96497521  0.95344309    -0.05300
N631        N  0.10026766  0.94198682  0.94811280    -0.63500
N632        N  0.04702267  0.96505872  0.92481760    -0.06000
N633        N  0.05283198  0.94219573  0.89935705    -0.63100
N634        N  0.07608773  0.53529135  0.95266318    -0.04900
N635        N  0.10225461  0.55756479  0.94625345    -0.63800
Mn636      Mn  0.99949550  0.50060984  0.92326154     1.10700
C637        C  0.08802098  0.57179481  0.91252369     0.99200
C638        C  0.08621316  0.92782424  0.91420405     0.99300
N639        N  0.04757297  0.96567087  0.57676614    -0.06000
N640        N  0.05329031  0.94269538  0.60206855    -0.61400
N641        N  0.07608280  0.53611175  0.54837570    -0.05300
N642        N  0.10161842  0.55905000  0.55393839    -0.58100
N643        N  0.04833375  0.53597951  0.57687910    -0.06700
N644        N  0.05460865  0.55865558  0.60260527    -0.61000
N645        N  0.07569333  0.96576408  0.54872034    -0.05600
N646        N  0.10113205  0.94295573  0.55442064    -0.58200
Mn647      Mn  0.00015757  0.50096806  0.57809507     1.20200
Mn648      Mn  0.07705966  0.50057067  0.50083355     1.10100
Cl649      Cl  0.99977833  0.50089940  0.50062521    -0.86100
C650        C  0.08682512  0.92866372  0.58777168     0.96200
C651        C  0.08783383  0.57286116  0.58783508     0.96000
N652        N  0.29913765  0.78601568  0.67383092    -0.06300
N653        N  0.30464800  0.80897871  0.64855120    -0.58400
N654        N  0.32720123  0.71541185  0.70200295    -0.06000
N655        N  0.35230575  0.69233895  0.69672584    -0.60500
N656        N  0.29924237  0.71571203  0.67322388    -0.05600
N657        N  0.30496356  0.69300415  0.64754952    -0.58400
N658        N  0.32747756  0.78595778  0.70220469    -0.05200
N659        N  0.35288396  0.80891247  0.69676011    -0.60900
C660        C  0.33825167  0.82311566  0.66320601     0.95900
C661        C  0.33805886  0.67859723  0.66267958     0.95700
N662        N  0.29911704  0.71527258  0.82538990    -0.06500
N663        N  0.30484038  0.69239184  0.85084666    -0.59000
N664        N  0.32775974  0.78551766  0.79796364    -0.04600
N665        N  0.35350832  0.80816917  0.80434276    -0.60200
N666        N  0.29944177  0.78546344  0.82583575    -0.06500
N667        N  0.30525840  0.80810019  0.85163117    -0.59200
N668        N  0.32741832  0.71543424  0.79747973    -0.04200
N669        N  0.35302886  0.69274471  0.80341468    -0.60700
Mn670      Mn  0.32885059  0.75060157  0.74988630     1.18400
C671        C  0.33855352  0.67853721  0.83675401     0.98000
C672        C  0.33908582  0.82211178  0.83790769     0.98600
N673        N  0.20357811  0.71568712  0.67280804    -0.06500
N674        N  0.19791099  0.69280740  0.64728102    -0.62800
N675        N  0.17557959  0.78580749  0.70120072    -0.05300
N676        N  0.15002011  0.80854499  0.69553685    -0.63500
N677        N  0.20376111  0.78605091  0.67321334    -0.06000
N678        N  0.19796814  0.80906486  0.64798832    -0.63100
N679        N  0.17568849  0.71539587  0.70116031    -0.04900
N680        N  0.15065636  0.69213777  0.69570750    -0.63800
Mn681      Mn  0.25142126  0.75088751  0.67187170     1.10700
C682        C  0.16491384  0.67830416  0.66203480     0.99200
C683        C  0.16432261  0.82295275  0.66227429     0.99300
N684        N  0.20383760  0.78592198  0.82528370    -0.06000
N685        N  0.19779374  0.80849294  0.85111983    -0.61400
N686        N  0.17513209  0.71582637  0.79658931    -0.05300
N687        N  0.14910490  0.69338757  0.80262761    -0.58100
N688        N  0.20366564  0.71551776  0.82464028    -0.06700
N689        N  0.19771537  0.69271641  0.85000005    -0.61000
N690        N  0.17583950  0.78614792  0.79659842    -0.05600
N691        N  0.15043754  0.80896494  0.80227869    -0.58200
Mn692      Mn  0.25152703  0.75052503  0.82662612     1.20200
Mn693      Mn  0.17421818  0.75078941  0.74882095     1.10100
Cl694      Cl  0.25152205  0.75070555  0.74930961    -0.86100
C695        C  0.16433606  0.82285076  0.83646465     0.96200
C696        C  0.16341753  0.67895702  0.83617138     0.96000
C697        C  0.14578441  0.65117492  0.64287076    -0.05500
C698        C  0.13044240  0.65287844  0.60276133    -0.02600
C699        C  0.11111796  0.62735118  0.58492454     0.02400
C700        C  0.10736695  0.59987574  0.60694149    -0.05500
C701        C  0.12273775  0.59817096  0.64706172    -0.02600
C702        C  0.14216380  0.62368276  0.66485712     0.02400
C703        C  0.13343300  0.68121646  0.58023785     0.37000
C704        C  0.11952149  0.56991004  0.66971507     0.37000
C705        C  0.16016036  0.62120669  0.70509038     0.35400
C706        C  0.09326182  0.62984443  0.54463971     0.35400
N707        N  0.17487262  0.61918881  0.73701165    -0.39400
N708        N  0.07867927  0.63191585  0.51266868    -0.39400
N709        N  0.11694399  0.54737738  0.68781321    -0.38800
N710        N  0.13582466  0.70384628  0.56233017    -0.38800
C711        C  0.10777147  0.59896896  0.89271818    -0.05500
C712        C  0.09587216  0.60842420  0.85311326    -0.02600
C713        C  0.11323666  0.63460846  0.83510688     0.02400
C714        C  0.14379631  0.65164887  0.85575810    -0.05500
C715        C  0.15575759  0.64214084  0.89531442    -0.02600
C716        C  0.13847495  0.61592764  0.91326506     0.02400
C717        C  0.06659251  0.59083874  0.82950462     0.37000
C718        C  0.18514182  0.65963832  0.91891542     0.37000
C719        C  0.15317858  0.60674730  0.95313579     0.35400
C720        C  0.09892841  0.64360269  0.79501773     0.35400
N721        N  0.16557266  0.59965224  0.98473504    -0.39400
N722        N  0.08689960  0.65052578  0.76321053    -0.39400
N723        N  0.20843792  0.67341249  0.93805358    -0.38800
N724        N  0.04340591  0.57698170  0.81033847    -0.38800
C725        C  0.14470029  0.85009797  0.64322309    -0.05500
C726        C  0.12668214  0.87281713  0.66765551    -0.02600
C727        C  0.10755803  0.89826411  0.64960186     0.02400
C728        C  0.10630093  0.90145816  0.60684656    -0.05500
C729        C  0.12433067  0.87873302  0.58242145    -0.02600
C730        C  0.14328049  0.85321693  0.60047294     0.02400
C731        C  0.12892040  0.87081812  0.71162442     0.37000
C732        C  0.12229783  0.88078727  0.53845342     0.37000
C733        C  0.15979141  0.82956692  0.57462411     0.35400
C734        C  0.09058939  0.92171571  0.67546534     0.35400
N735        N  0.17284090  0.81074221  0.55390671    -0.39400
N736        N  0.07710068  0.94035615  0.69619190    -0.39400
N737        N  0.12087696  0.88216645  0.50338600    -0.38800
N738        N  0.13054874  0.86946922  0.74668903    -0.38800
C739        C  0.39415779  0.60006814  0.60757694    -0.05500
C740        C  0.37926370  0.59832691  0.64760823    -0.02600
C741        C  0.36080670  0.62397467  0.66560837     0.02400
C742        C  0.35709657  0.65152115  0.64367485    -0.05500
C743        C  0.37197296  0.65324762  0.60365002    -0.02600
C744        C  0.39053547  0.62764045  0.58570723     0.02400
C745        C  0.38168954  0.56981964  0.66982842     0.37000
C746        C  0.36948121  0.68173687  0.58139242     0.37000
C747        C  0.40740415  0.63003118  0.54528264     0.35400
C748        C  0.34428907  0.62168838  0.70619761     0.35400
N749        N  0.42110421  0.63193281  0.51315111    -0.39400
N750        N  0.33094104  0.61987075  0.73849078    -0.39400
N751        N  0.36758180  0.70450304  0.56371667    -0.38800
N752        N  0.38350743  0.54704790  0.68750183    -0.38800
C753        C  0.39294843  0.90193377  0.89428191    -0.05500
C754        C  0.37632973  0.87844269  0.91847914    -0.02600
C755        C  0.35907712  0.85231825  0.90011327     0.02400
C756        C  0.35791271  0.84945065  0.85730286    -0.05500
C757        C  0.37439051  0.87300775  0.83311677    -0.02600
C758        C  0.39170051  0.89909660  0.85147802     0.02400
C759        C  0.37800716  0.88049173  0.96247065     0.37000
C760        C  0.37230919  0.87114984  0.78912411     0.37000
C761        C  0.40658186  0.92359983  0.82591333     0.35400
C762        C  0.34401844  0.82788073  0.92567083     0.35400
N763        N  0.41829551  0.94308907  0.80538172    -0.39400
N764        N  0.33213158  0.80846143  0.94621869    -0.39400
N765        N  0.37075427  0.86981352  0.75405307    -0.38800
N766        N  0.37916783  0.88201651  0.99754090    -0.38800
C767        C  0.35768086  0.65140178  0.85594651    -0.05500
C768        C  0.33353154  0.62628856  0.86773841    -0.02600
C769        C  0.35152591  0.60076762  0.88671813     0.02400
C770        C  0.39395371  0.59991794  0.89354200    -0.05500
C771        C  0.41815850  0.62489508  0.88134889    -0.02600
C772        C  0.40010737  0.65054245  0.86274161     0.02400
C773        C  0.29034460  0.62598088  0.85857367     0.37000
C774        C  0.46156376  0.62483028  0.88935525     0.37000
C775        C  0.42524911  0.67648385  0.85195680     0.35400
C776        C  0.32635429  0.57490389  0.89775642     0.35400
N777        N  0.44543367  0.69711974  0.84345666    -0.39400
N778        N  0.30615081  0.55433389  0.90648779    -0.39400
N779        N  0.49614820  0.62484736  0.89579222    -0.38800
N780        N  0.25598246  0.62563036  0.85099835    -0.38800
C781        C  0.10609868  0.90070521  0.89470331    -0.05500
C782        C  0.08295413  0.87945521  0.87166925    -0.02600
C783        C  0.10186348  0.85433107  0.85264401     0.02400
C784        C  0.14435490  0.84976004  0.85634205    -0.05500
C785        C  0.16746381  0.87090283  0.87957761    -0.02600
C786        C  0.14855959  0.89601235  0.89861779     0.02400
C787        C  0.03916631  0.88249618  0.86850034     0.37000
C788        C  0.21121335  0.86770881  0.88308535     0.37000
C789        C  0.17359891  0.91742901  0.92136241     0.35400
C790        C  0.07681997  0.83268021  0.83030341     0.35400
N791        N  0.19369225  0.93435980  0.93958337    -0.39400
N792        N  0.05675241  0.81550600  0.81246409    -0.39400
N793        N  0.24609376  0.86543713  0.88613819    -0.38800
N794        N  0.00424427  0.88461407  0.86576893    -0.38800
C795        C  0.39357690  0.90193969  0.60670058    -0.05500
C796        C  0.35092183  0.90009658  0.61066073    -0.02600
C797        C  0.33288721  0.87447370  0.62926615     0.02400
C798        C  0.35728548  0.85033885  0.64406001    -0.05500
C799        C  0.39992012  0.85214665  0.63999363    -0.02600
C800        C  0.41796113  0.87779966  0.62149296     0.02400
C801        C  0.32542861  0.92514387  0.59720644     0.37000
C802        C  0.42539281  0.82705137  0.65331659     0.37000
C803        C  0.46168225  0.87868148  0.61647859     0.35400
C804        C  0.28919262  0.87367277  0.63454070     0.35400
N805        N  0.49654407  0.87925161  0.61256514    -0.39400
N806        N  0.25436097  0.87320722  0.63872577    -0.39400
N807        N  0.44575260  0.80704321  0.66383979    -0.38800
N808        N  0.30503261  0.94510616  0.58659333    -0.38800
N809        N  0.95150899  0.46581233  0.42467540    -0.06300
N810        N  0.94566011  0.44295622  0.39925339    -0.58400
N811        N  0.92384129  0.03611619  0.45230668    -0.06000
N812        N  0.89813238  0.05869597  0.44601273    -0.60500
N813        N  0.95200167  0.03597566  0.42424831    -0.05600
N814        N  0.94608422  0.05853997  0.39834213    -0.58400
N815        N  0.92323981  0.46601326  0.45258847    -0.05200
N816        N  0.89748730  0.44329386  0.44661569    -0.60900
C817        C  0.91186099  0.42906830  0.41323669     0.95900
C818        C  0.91240772  0.07252188  0.41230296     0.95700
N819        N  0.95237930  0.03621063  0.07680906    -0.06500
N820        N  0.94640543  0.05863877  0.10285933    -0.59000
N821        N  0.92376358  0.46611701  0.04813117    -0.04600
N822        N  0.89822297  0.44327083  0.05366411    -0.60200
N823        N  0.95217010  0.46601374  0.07643290    -0.06500
N824        N  0.94654134  0.44312079  0.10179138    -0.59200
N825        N  0.92433849  0.03653066  0.04809586    -0.04200
N826        N  0.89892344  0.05934619  0.05381393    -0.60300
Mn827      Mn  0.92245195  0.50123297  0.00030711     1.18400
C828        C  0.91305686  0.07289274  0.08805360     0.98000
C829        C  0.91281290  0.42908721  0.08722791     0.98600
N830        N  0.54779648  0.03547834  0.42484464    -0.06500
N831        N  0.55395149  0.05795171  0.39899743    -0.62800
N832        N  0.57524602  0.46495464  0.45370175    -0.05300
N833        N  0.60048408  0.44199968  0.44828561    -0.63500
N834        N  0.54716789  0.46505283  0.42510263    -0.06000
N835        N  0.55300423  0.44223468  0.39957597    -0.63100
N836        N  0.57636917  0.03528660  0.45285849    -0.04900
N837        N  0.60262498  0.05748497  0.44630709    -0.63800
Mn838      Mn  0.49970432  0.00066211  0.42360711     1.10700
C839        C  0.58843130  0.07163919  0.41249059     0.99200
C840        C  0.58642219  0.42786407  0.41435330     0.99300
N841        N  0.54760293  0.46571412  0.07702831    -0.06000
N842        N  0.55330968  0.44271834  0.10229476    -0.61400
N843        N  0.57611072  0.03611496  0.04856020    -0.05300
N844        N  0.60162562  0.05906636  0.05403890    -0.58100
N845        N  0.54836524  0.03601099  0.07706975    -0.06700
N846        N  0.55461854  0.05873675  0.10271171    -0.61000
N847        N  0.57571248  0.46581180  0.04896815    -0.05600
N848        N  0.60113096  0.44299539  0.05462133    -0.58200
Mn849      Mn  0.50018210  0.00101948  0.07841808     1.20200
Mn850      Mn  0.57718175  0.00059004  0.00109119     1.10100
Cl851      Cl  0.49989325  0.00094569  0.00095171    -0.86100
C852        C  0.58682339  0.42869132  0.08794879     0.96200
C853        C  0.58782560  0.07292744  0.08788002     0.96000
N854        N  0.79924250  0.28597662  0.17339599    -0.06300
N855        N  0.80481431  0.30892348  0.14810175    -0.58400
N856        N  0.82716332  0.21532593  0.20151002    -0.06000
N857        N  0.85220352  0.19221096  0.19625245    -0.60500
N858        N  0.79921067  0.21566189  0.17273218    -0.05600
N859        N  0.80487074  0.19293370  0.14706981    -0.58400
N860        N  0.82759107  0.28587882  0.20176267    -0.05200
N861        N  0.85307120  0.30878763  0.19629192    -0.60900
C862        C  0.83846792  0.32300883  0.16273542     0.95900
C863        C  0.83792334  0.17847534  0.16221674     0.95700
N864        N  0.79887405  0.21509921  0.32481481    -0.06500
N865        N  0.80439004  0.19208345  0.35009753    -0.59000
N866        N  0.82778717  0.28534044  0.29757990    -0.04600
N867        N  0.85358539  0.30794860  0.30402520    -0.60200
N868        N  0.79945832  0.28529389  0.32544062    -0.06500
N869        N  0.80531099  0.30788790  0.35128839    -0.59200
N870        N  0.82719229  0.21524917  0.29691853    -0.04200
N871        N  0.85261199  0.19241997  0.30269567    -0.60700
Mn872      Mn  0.82883014  0.25048056  0.24943138     1.18400
C873        C  0.83799426  0.17814013  0.33591515     0.98000
C874        C  0.83917493  0.32186617  0.33761674     0.98600
N875        N  0.70360221  0.21572075  0.17255166    -0.06500
N876        N  0.69802159  0.19275737  0.14715393    -0.62800
N877        N  0.67566921  0.28582270  0.20093504    -0.05300
N878        N  0.65015629  0.30859152  0.19535687    -0.63500
N879        N  0.70384335  0.28607796  0.17293927    -0.06000
N880        N  0.69808827  0.30913958  0.14778805    -0.63100
N881        N  0.67572293  0.21544750  0.20091522    -0.04900
N882        N  0.65077710  0.19212954  0.19559395    -0.63800
Mn883      Mn  0.75144638  0.25088917  0.17148561     1.10700
C884        C  0.66508599  0.17823232  0.16200047     0.99200
C885        C  0.66447712  0.32303242  0.16214301     0.99300
N886        N  0.70385391  0.28596608  0.32494469    -0.06000
N887        N  0.69786571  0.30855134  0.35077851    -0.61400
N888        N  0.67494558  0.21586179  0.29631625    -0.05300
N889        N  0.64884495  0.19347727  0.30245696    -0.58100
N890        N  0.70349081  0.21555191  0.32434488    -0.06700
N891        N  0.69748187  0.19282025  0.34979659    -0.61000
N892        N  0.67583228  0.28621459  0.29628510    -0.05600
N893        N  0.65047023  0.30906053  0.30197992    -0.58200
Mn894      Mn  0.75145231  0.25046477  0.32621498     1.20200
Mn895      Mn  0.67419561  0.25082985  0.24851954     1.10100
Cl896      Cl  0.75150145  0.25068237  0.24891725    -0.86100
C897        C  0.66441869  0.32294904  0.33615021     0.96200
C898        C  0.66312660  0.17909442  0.33606356     0.96000
C899        C  0.64593907  0.15112069  0.14287939    -0.05500
C900        C  0.63130879  0.15267304  0.10250182    -0.02600
C901        C  0.61198708  0.12717178  0.08463779     0.02400
C902        C  0.60742430  0.09990223  0.10694974    -0.05500
C903        C  0.62207013  0.09835003  0.14734342    -0.02600
C904        C  0.64152820  0.12382672  0.16515728     0.02400
C905        C  0.63488863  0.18087738  0.07975945     0.37000
C906        C  0.61814333  0.07025303  0.17025110     0.37000
C907        C  0.65871269  0.12149444  0.20575469     0.35400
C908        C  0.59495371  0.12951699  0.04398734     0.35400
N909        N  0.67276028  0.11955291  0.23797787    -0.39400
N910        N  0.58104217  0.13150268  0.01171362    -0.39400
N911        N  0.61500451  0.04784358  0.18852892    -0.38800
N912        N  0.63771742  0.20341401  0.06170873    -0.38800
C913        C  0.60811535  0.09881984  0.39260146    -0.05500
C914        C  0.59584912  0.10841477  0.35315992    -0.02600
C915        C  0.61283599  0.13478449  0.33525715     0.02400
C916        C  0.64357501  0.15176874  0.35571871    -0.05500
C917        C  0.65591468  0.14211111  0.39510427    -0.02600
C918        C  0.63895709  0.11574462  0.41297881     0.02400
C919        C  0.56660990  0.09077116  0.32957989     0.37000
C920        C  0.68529326  0.15964319  0.41866430     0.37000
C921        C  0.65418118  0.10634742  0.45256425     0.35400
C922        C  0.59784512  0.14408960  0.29554383     0.35400
N923        N  0.66696764  0.09908511  0.48394155    -0.39400
N924        N  0.58526678  0.15126662  0.26404712    -0.39400
N925        N  0.70856148  0.17345276  0.43779046    -0.38800
N926        N  0.54347862  0.07685575  0.31042265    -0.38800
C927        C  0.64484651  0.35017762  0.14317669    -0.05500
C928        C  0.62687626  0.37287374  0.16768145    -0.02600
C929        C  0.60769169  0.39831084  0.14969696     0.02400
C930        C  0.60631511  0.40149499  0.10695027    -0.05500
C931        C  0.62430546  0.37879722  0.08245491    -0.02600
C932        C  0.64331074  0.35329082  0.10043680     0.02400
C933        C  0.62920525  0.37085769  0.21164517     0.37000
C934        C  0.62221611  0.38088205  0.03849070     0.37000
C935        C  0.65973690  0.32963769  0.07453586     0.35400
C936        C  0.59082337  0.42177580  0.17560956     0.35400
N937        N  0.67271309  0.31080708  0.05378151    -0.39400
N938        N  0.57742577  0.44043285  0.19636968    -0.39400
N939        N  0.62077185  0.38228361  0.00342578    -0.38800
N940        N  0.63088919  0.36950723  0.24670724    -0.38800
C941        C  0.89400488  0.09990870  0.10719335    -0.05500
C942        C  0.87919136  0.09820124  0.14725707    -0.02600
C943        C  0.86070092  0.12385037  0.16522054     0.02400
C944        C  0.85691888  0.15137087  0.14323131    -0.05500
C945        C  0.87179444  0.15307229  0.10320356    -0.02600
C946        C  0.89037076  0.12746201  0.08529388     0.02400
C947        C  0.88181839  0.06974790  0.16958308     0.37000
C948        C  0.86934592  0.18155223  0.08092645     0.37000
C949        C  0.90732356  0.12984543  0.04490242     0.35400
C950        C  0.84426817  0.12159644  0.20584761     0.35400
N951        N  0.92111719  0.13173246  0.01281021    -0.39400
N952        N  0.83099962  0.11979246  0.23817555    -0.39400
N953        N  0.86750045  0.20431102  0.06322963    -0.38800
N954        N  0.88382546  0.04702721  0.18735462    -0.38800
C955        C  0.89284959  0.40175460  0.39397754    -0.05500
C956        C  0.87627106  0.37824809  0.41818406    -0.02600
C957        C  0.85909947  0.35208817  0.39982585     0.02400
C958        C  0.85796398  0.34920946  0.35701599    -0.05500
C959        C  0.87437992  0.37278174  0.33282444    -0.02600
C960        C  0.89160676  0.39890215  0.35117438     0.02400
C961        C  0.87791766  0.38031324  0.46217408     0.37000
C962        C  0.87234350  0.37089025  0.28883131     0.37000
C963        C  0.90641706  0.42341530  0.32559107     0.35400
C964        C  0.84412379  0.32761822  0.42538339     0.35400
N965        N  0.91807271  0.44290599  0.30503021    -0.39400
N966        N  0.83231575  0.30816926  0.44592864    -0.39400
N967        N  0.87082670  0.36950658  0.25376205    -0.38800
N968        N  0.87905370  0.38184390  0.49724463    -0.38800
C969        C  0.85705632  0.15098331  0.35508418    -0.05500
C970        C  0.83289792  0.12584724  0.36676442    -0.02600
C971        C  0.85085173  0.10037504  0.38591370     0.02400
C972        C  0.89328238  0.09952453  0.39276544    -0.05500
C973        C  0.91747703  0.12454021  0.38069386    -0.02600
C974        C  0.89943606  0.15020474  0.36214242     0.02400
C975        C  0.78974937  0.12550849  0.35740221     0.37000
C976        C  0.96084347  0.12454164  0.38890664     0.37000
C977        C  0.92449995  0.17630603  0.35185409     0.35400
C978        C  0.82560943  0.07464140  0.39730483     0.35400
N979        N  0.94459772  0.19709519  0.34381216    -0.39400
N980        N  0.80532248  0.05420762  0.40639534    -0.39400
N981        N  0.99539321  0.12461077  0.39553023    -0.38800
N982        N  0.75542242  0.12514241  0.34965817    -0.38800
C983        C  0.60629623  0.40075554  0.39476071    -0.05500
C984        C  0.58312945  0.37959868  0.37159196    -0.02600
C985        C  0.60200257  0.35453597  0.35237303     0.02400
C986        C  0.64448144  0.34987990  0.35607885    -0.05500
C987        C  0.66761390  0.37092779  0.37945470    -0.02600
C988        C  0.64874309  0.39597966  0.39868602     0.02400
C989        C  0.53933188  0.38263390  0.36856238     0.37000
C990        C  0.71136346  0.36770161  0.38289897     0.37000
C991        C  0.67379425  0.41720610  0.42173025     0.35400
C992        C  0.57692317  0.33304997  0.32979427     0.35400
N993        N  0.69390856  0.43396309  0.44021379    -0.39400
N994        N  0.55680317  0.31602578  0.31175825    -0.39400
N995        N  0.74624605  0.36540123  0.38588199    -0.38800
N996        N  0.50439962  0.38475112  0.36598501    -0.38800
C997        C  0.89375740  0.40186385  0.10630083    -0.05500
C998        C  0.85111503  0.40003638  0.11030781    -0.02600
C999        C  0.83309801  0.37440730  0.12890117     0.02400
C1000       C  0.85750524  0.35025025  0.14362686    -0.05500
C1001       C  0.90014217  0.35206921  0.13954741    -0.02600
C1002       C  0.91816603  0.37773720  0.12107158     0.02400
C1003       C  0.82562970  0.42511519  0.09692743     0.37000
C1004       C  0.92564178  0.32698150  0.15282904     0.37000
C1005       C  0.96189315  0.37866433  0.11607986     0.35400
C1006       C  0.78941516  0.37363431  0.13424162     0.35400
N1007       N  0.99675597  0.37929333  0.11218314    -0.39400
N1008       N  0.75458961  0.37320976  0.13847274    -0.39400
N1009       N  0.94605764  0.30699232  0.16330410    -0.38800
N1010       N  0.80526936  0.44511373  0.08636640    -0.38800
N1011       N  0.95150710  0.46581298  0.92467532    -0.06300
N1012       N  0.94565815  0.44295665  0.89925391    -0.58400
N1013       N  0.92383929  0.03611714  0.95230590    -0.06000
N1014       N  0.89813063  0.05869722  0.94601194    -0.60500
N1015       N  0.95199968  0.03597655  0.92424727    -0.05600
N1016       N  0.94608239  0.05854112  0.89834146    -0.58400
N1017       N  0.92323817  0.46601414  0.95258840    -0.05200
N1018       N  0.89748536  0.44329469  0.94661640    -0.60900
C1019       C  0.91185948  0.42906871  0.91323738     0.95900
C1020       C  0.91240659  0.07252315  0.91230230     0.95700
N1021       N  0.95238048  0.03620992  0.57680998    -0.06500
N1022       N  0.94640727  0.05863819  0.60285962    -0.59000
N1023       N  0.92376455  0.46611632  0.54813090    -0.04600
N1024       N  0.89822395  0.44327038  0.55366354    -0.60200
N1025       N  0.95217091  0.46601294  0.57643326    -0.06500
N1026       N  0.94654149  0.44311983  0.60179151    -0.59200
N1027       N  0.92433988  0.03653003  0.54809656    -0.04200
N1028       N  0.89892523  0.05934565  0.55381432    -0.60300
Mn1029     Mn  0.92245356  0.50123219  0.50030751     1.18400
C1030       C  0.91305892  0.07289266  0.58805414     0.98000
C1031       C  0.91281288  0.42908656  0.58722680     0.98600
N1032       N  0.54779372  0.03547952  0.92484434    -0.06500
N1033       N  0.55394664  0.05795385  0.89899808    -0.62800
N1034       N  0.57524514  0.46495615  0.95370033    -0.05300
N1035       N  0.60048445  0.44200208  0.94828324    -0.63500
N1036       N  0.54716677  0.46505419  0.92510137    -0.06000
N1037       N  0.55300425  0.44223660  0.89957393    -0.63100
N1038       N  0.57636666  0.03528807  0.95285777    -0.04900
N1039       N  0.60262078  0.05748754  0.94630716    -0.63800
Mn1040     Mn  0.49970247  0.00066297  0.92360648     1.10700
C1041       C  0.58842590  0.07164243  0.91249179     0.99200
C1042       C  0.58642300  0.42786680  0.91435066     0.99300
N1043       N  0.54760313  0.46571353  0.57702928    -0.06000
N1044       N  0.55330959  0.44271756  0.60229550    -0.61400
N1045       N  0.57611190  0.03611416  0.54856082    -0.05300
N1046       N  0.60162635  0.05906593  0.55403897    -0.58100
N1047       N  0.54836641  0.03601025  0.57707030    -0.06700
N1048       N  0.55461889  0.05873654  0.60271141    -0.61000
N1049       N  0.57571318  0.46581111  0.54896908    -0.05600
N1050       N  0.60113111  0.44299439  0.55462248    -0.58200
Mn1051     Mn  0.50018326  0.00101899  0.57841871     1.20200
Mn1052     Mn  0.57718317  0.00058907  0.50109214     1.10100
Cl1053     Cl  0.49989477  0.00094497  0.50095239    -0.86100
C1054       C  0.58682284  0.42869069  0.58794939     0.96200
C1055       C  0.58782566  0.07292736  0.58787982     0.96000
N1056       N  0.79924077  0.28597668  0.67339347    -0.06300
N1057       N  0.80481266  0.30892273  0.64809866    -0.58400
N1058       N  0.82716287  0.21532674  0.70150860    -0.06000
N1059       N  0.85220394  0.19221225  0.69625060    -0.60500
N1060       N  0.79920961  0.21566194  0.67273066    -0.05600
N1061       N  0.80487071  0.19293401  0.64706870    -0.58400
N1062       N  0.82758952  0.28587949  0.70176059    -0.05200
N1063       N  0.85306952  0.30878802  0.69628886    -0.60900
C1064       C  0.83846577  0.32300860  0.66273161     0.95900
C1065       C  0.83792339  0.17847639  0.66221453     0.95700
N1066       N  0.79887308  0.21510053  0.82481337    -0.06500
N1067       N  0.80438916  0.19208531  0.85009664    -0.59000
N1068       N  0.82778559  0.28534185  0.79757863    -0.04600
N1069       N  0.85358394  0.30794973  0.80402459    -0.60200
N1070       N  0.79945706  0.28529485  0.82543930    -0.06500
N1071       N  0.80530978  0.30788831  0.85128809    -0.59200
N1072       N  0.82719160  0.21525053  0.79691747    -0.04200
N1073       N  0.85261146  0.19242187  0.80269502    -0.60700
Mn1074     Mn  0.82882900  0.25048170  0.74942972     1.18400
C1075       C  0.83799424  0.17814199  0.83591466     0.98000
C1076       C  0.83917395  0.32186688  0.83761655     0.98600
N1077       N  0.70360102  0.21572087  0.67255113    -0.06500
N1078       N  0.69801946  0.19275765  0.64715367    -0.62800
N1079       N  0.67566899  0.28582309  0.70093404    -0.05300
N1080       N  0.65015664  0.30859238  0.69535601    -0.63500
N1081       N  0.70384279  0.28607777  0.67293770    -0.06000
N1082       N  0.69808840  0.30913949  0.64778693    -0.63100
N1083       N  0.67572147  0.21544823  0.70091479    -0.04900
N1084       N  0.65077492  0.19213069  0.69559356    -0.63800
Mn1085     Mn  0.75144527  0.25088910  0.67148446     1.10700
C1086       C  0.66508366  0.17823329  0.66199986     0.99200
C1087       C  0.66447844  0.32303291  0.66214197     0.99300
N1088       N  0.70385314  0.28596716  0.82494375    -0.06000
N1089       N  0.69786551  0.30855305  0.85077663    -0.61400
N1090       N  0.67494399  0.21586303  0.79631540    -0.05300
N1091       N  0.64884161  0.19347956  0.80245692    -0.58100
N1092       N  0.70348912  0.21555273  0.82434433    -0.06700
N1093       N  0.69747817  0.19282192  0.84979687    -0.61000
N1094       N  0.67583141  0.28621582  0.79628373    -0.05600
N1095       N  0.65047028  0.30906245  0.80197801    -0.58200
Mn1096     Mn  0.75145099  0.25046580  0.82621384     1.20200
Mn1097     Mn  0.67419462  0.25083078  0.74851863     1.10100
Cl1098     Cl  0.75150034  0.25068300  0.74891602    -0.86100
C1099       C  0.66441930  0.32295090  0.83614820     0.96200
C1100       C  0.66312254  0.17909715  0.83606451     0.96000
C1101       C  0.64593632  0.15112156  0.64287923    -0.05500
C1102       C  0.63131072  0.15267256  0.60250000    -0.02600
C1103       C  0.61199036  0.12717087  0.58463551     0.02400
C1104       C  0.60742358  0.09990251  0.60694934    -0.05500
C1105       C  0.62206430  0.09835189  0.64734486    -0.02600
C1106       C  0.64152154  0.12382885  0.66515892     0.02400
C1107       C  0.63489366  0.18087603  0.57975599     0.37000
C1108       C  0.61813407  0.07025605  0.67025452     0.37000
C1109       C  0.65870100  0.12149796  0.70575850     0.35400
C1110       C  0.59496300  0.12951454  0.54398254     0.35400
N1111       N  0.67274482  0.11955733  0.73798346    -0.39400
N1112       N  0.58105627  0.13149893  0.51170663    -0.39400
N1113       N  0.61499238  0.04784759  0.68853378    -0.38800
N1114       N  0.63772482  0.20341190  0.56170415    -0.38800
C1115       C  0.60810713  0.09882457  0.89260391    -0.05500
C1116       C  0.59584009  0.10842016  0.85316294    -0.02600
C1117       C  0.61282690  0.13479011  0.83526045     0.02400
C1118       C  0.64356736  0.15177313  0.85572076    -0.05500
C1119       C  0.65590548  0.14211662  0.89510751    -0.02600
C1120       C  0.63894708  0.11575058  0.91298243     0.02400
C1121       C  0.56659784  0.09077829  0.82958431     0.37000
C1122       C  0.68528083  0.15965057  0.91866900     0.37000
C1123       C  0.65416670  0.10635599  0.95257075     0.35400
C1124       C  0.59783233  0.14409747  0.79554946     0.35400
N1125       N  0.66694914  0.09909599  0.98395056    -0.39400
N1126       N  0.58525037  0.15127649  0.76405485    -0.39400
N1127       N  0.70854602  0.17346183  0.93779640    -0.38800
N1128       N  0.54346385  0.07686452  0.81042811    -0.38800
C1129       C  0.64484839  0.35017830  0.64317609    -0.05500
C1130       C  0.62688066  0.37287491  0.66768150    -0.02600
C1131       C  0.60769370  0.39831122  0.64969722     0.02400
C1132       C  0.60631419  0.40149399  0.60695083    -0.05500
C1133       C  0.62430219  0.37879592  0.58245459    -0.02600
C1134       C  0.64330972  0.35329030  0.60043622     0.02400
C1135       C  0.62921569  0.37086093  0.71164509     0.37000
C1136       C  0.62220650  0.38087858  0.53849060     0.37000
C1137       C  0.65973625  0.32963756  0.57453475     0.35400
C1138       C  0.59082480  0.42177582  0.67561038     0.35400
N1139       N  0.67271303  0.31080750  0.55378028    -0.39400
N1140       N  0.57742640  0.44043217  0.69637079    -0.39400
N1141       N  0.62075663  0.38227852  0.50342578    -0.38800
N1142       N  0.63090507  0.36951212  0.74670714    -0.38800
C1143       C  0.89400753  0.09990911  0.60719334    -0.05500
C1144       C  0.87920443  0.09820482  0.64726127    -0.02600
C1145       C  0.86071252  0.12385409  0.66522369     0.02400
C1146       C  0.85691980  0.15137128  0.64322978    -0.05500
C1147       C  0.87178503  0.15306983  0.60319783    -0.02600
C1148       C  0.89036281  0.12745943  0.58528913     0.02400
C1149       C  0.88184346  0.06975476  0.66959360     0.37000
C1150       C  0.86932440  0.18154638  0.58091434     0.37000
C1151       C  0.90730756  0.12984072  0.54489412     0.35400
C1152       C  0.84428889  0.12160231  0.70585472     0.35400
N1153       N  0.92109512  0.13172601  0.51279904    -0.39400
N1154       N  0.83102704  0.11979998  0.73818577    -0.39400
N1155       N  0.86746909  0.20430216  0.56321221    -0.38800
N1156       N  0.88386053  0.04703692  0.68737014    -0.38800
C1157       C  0.89284756  0.40175519  0.89397864    -0.05500
C1158       C  0.87626957  0.37824853  0.91818480    -0.02600
C1159       C  0.85909784  0.35208862  0.89982635     0.02400
C1160       C  0.85796283  0.34920991  0.85701653    -0.05500
C1161       C  0.87437878  0.37278245  0.83282517    -0.02600
C1162       C  0.89160448  0.39890317  0.85117528     0.02400
C1163       C  0.87791652  0.38031352  0.96217488     0.37000
C1164       C  0.87234387  0.37089088  0.78883206     0.37000
C1165       C  0.90641293  0.42341715  0.82559239     0.35400
C1166       C  0.84412184  0.32761883  0.92538389     0.35400
N1167       N  0.91806688  0.44290872  0.80503209    -0.39400
N1168       N  0.83231336  0.30817005  0.94592935    -0.39400
N1169       N  0.87082856  0.36950713  0.75376278    -0.38800
N1170       N  0.87905307  0.38184423  0.99724550    -0.38800
C1171       C  0.85705548  0.15098536  0.85508418    -0.05500
C1172       C  0.83289702  0.12584950  0.86676407    -0.02600
C1173       C  0.85085064  0.10037681  0.88591302     0.02400
C1174       C  0.89328105  0.09952639  0.89276515    -0.05500
C1175       C  0.91747581  0.12454254  0.88069605    -0.02600
C1176       C  0.89943506  0.15020749  0.86214458     0.02400
C1177       C  0.78974788  0.12551196  0.85740453     0.37000
C1178       C  0.96084142  0.12454530  0.88891321     0.37000
C1179       C  0.92449798  0.17631042  0.85186117     0.35400
C1180       C  0.82560763  0.07464404  0.89730510     0.35400
N1181       N  0.94459471  0.19710114  0.84382397    -0.39400
N1182       N  0.80532021  0.05421093  0.90639694    -0.39400
N1183       N  0.99539028  0.12461582  0.89554098    -0.38800
N1184       N  0.75542028  0.12514740  0.84966346    -0.38800
C1185       C  0.60629741  0.40075830  0.89475750    -0.05500
C1186       C  0.58313062  0.37960145  0.87158966    -0.02600
C1187       C  0.60200358  0.35453852  0.85237044     0.02400
C1188       C  0.64448227  0.34988254  0.85607656    -0.05500
C1189       C  0.66761488  0.37092998  0.87945236    -0.02600
C1190       C  0.64874426  0.39598241  0.89868346     0.02400
C1191       C  0.53933275  0.38263580  0.86856139     0.37000
C1192       C  0.71136428  0.36770276  0.88289870     0.37000
C1193       C  0.67379538  0.41720838  0.92172837     0.35400
C1194       C  0.57692375  0.33305217  0.82979296     0.35400
N1195       N  0.69390957  0.43396472  0.94021279    -0.39400
N1196       N  0.55680361  0.31602753  0.81175811    -0.39400
N1197       N  0.74624653  0.36540133  0.88588363    -0.38800
N1198       N  0.50440032  0.38475238  0.86598592    -0.38800
C1199       C  0.89375681  0.40186294  0.60629867    -0.05500
C1200       C  0.85111450  0.40003647  0.61030630    -0.02600
C1201       C  0.83309669  0.37440729  0.62889862     0.02400
C1202       C  0.85750374  0.35024912  0.64362221    -0.05500
C1203       C  0.90014017  0.35206682  0.63954054    -0.02600
C1204       C  0.91816484  0.37773505  0.62106613     0.02400
C1205       C  0.82562978  0.42511630  0.59692755     0.37000
C1206       C  0.92563886  0.32697720  0.65281765     0.37000
C1207       C  0.96189170  0.37866123  0.61607219     0.35400
C1208       C  0.78941401  0.37363493  0.63423968     0.35400
N1209       N  0.99675433  0.37928937  0.61217368    -0.39400
N1210       N  0.75458872  0.37321070  0.63847140    -0.39400
N1211       N  0.94605354  0.30698628  0.66328915    -0.38800
N1212       N  0.80527010  0.44511550  0.58636767    -0.38800
N1213       N  0.95151196  0.96581660  0.42464955    -0.06300
N1214       N  0.94566080  0.94296957  0.39921360    -0.58400
N1215       N  0.92385617  0.53611886  0.45233232    -0.06000
N1216       N  0.89814810  0.55869891  0.44603180    -0.60500
N1217       N  0.95200691  0.53596906  0.42426458    -0.05600
N1218       N  0.94607931  0.55852142  0.39834375    -0.58400
N1219       N  0.92323378  0.96601765  0.45255293    -0.05200
N1220       N  0.89747200  0.94330802  0.44656026    -0.60900
C1221       C  0.91184989  0.92908729  0.41317966     0.95900
C1222       C  0.91241093  0.57251221  0.41230522     0.95700
N1223       N  0.95241918  0.53620755  0.07683616    -0.06500
N1224       N  0.94644709  0.55863326  0.10289132    -0.59000
N1225       N  0.92373547  0.96611724  0.04809788    -0.04600
N1226       N  0.89819567  0.94326965  0.05362713    -0.60200
N1227       N  0.95213468  0.96601866  0.07640725    -0.06500
N1228       N  0.94650157  0.94312737  0.10176685    -0.59200
N1229       N  0.92437378  0.53652939  0.04812755    -0.04200
N1230       N  0.89895720  0.55934230  0.05385365    -0.60300
Mn1231     Mn  0.92243122  0.00123240  0.00027576     1.18400
C1232       C  0.91309354  0.57288702  0.08809309     0.98000
C1233       C  0.91277940  0.92908990  0.08719603     0.98600
N1234       N  0.54778359  0.53548615  0.42485421    -0.06500
N1235       N  0.55394242  0.55796167  0.39900899    -0.62800
N1236       N  0.57528042  0.96495941  0.45370287    -0.05300
N1237       N  0.60053528  0.94201433  0.44828649    -0.63500
N1238       N  0.54720382  0.96505097  0.42510137    -0.06000
N1239       N  0.55305888  0.94223725  0.39957338    -0.63100
N1240       N  0.57636405  0.53528595  0.45286111    -0.04900
N1241       N  0.60263011  0.55747871  0.44630676    -0.63800
Mn1242     Mn  0.49968134  0.50066638  0.42362197     1.10700
C1243       C  0.58843345  0.57163839  0.41249545     0.99200
C1244       C  0.58648480  0.92787615  0.41435174     0.99300
N1245       N  0.54760356  0.96571292  0.07701702    -0.06000
N1246       N  0.55331425  0.94271859  0.10228504    -0.61400
N1247       N  0.57611586  0.53611282  0.04856296    -0.05300
N1248       N  0.60163028  0.55906562  0.05403382    -0.58100
N1249       N  0.54837355  0.53601268  0.07707604    -0.06700
N1250       N  0.55462965  0.55874120  0.10271333    -0.61000
N1251       N  0.57572076  0.96581792  0.04896483    -0.05600
N1252       N  0.60114808  0.94300858  0.05462397    -0.58200
Mn1253     Mn  0.50018690  0.50102528  0.07843639     1.20200
Mn1254     Mn  0.57717220  0.50058559  0.00109247     1.10100
Cl1255     Cl  0.49988473  0.50094833  0.00096869    -0.86100
C1256       C  0.58683854  0.92870055  0.08794689     0.96200
C1257       C  0.58783446  0.57292998  0.08787352     0.96000
N1258       N  0.79924353  0.78597793  0.17338628    -0.06300
N1259       N  0.80480427  0.80893048  0.14809958    -0.58400
N1260       N  0.82717227  0.71532926  0.20150657    -0.06000
N1261       N  0.85221130  0.69221197  0.19626570    -0.60500
N1262       N  0.79922177  0.71565957  0.17272683    -0.05600
N1263       N  0.80488252  0.69292272  0.14707865    -0.58400
N1264       N  0.82759085  0.78588194  0.20175340    -0.05200
N1265       N  0.85305903  0.80879899  0.19629178    -0.60900
C1266       C  0.83845016  0.82302235  0.16273889     0.95900
C1267       C  0.83793200  0.67846632  0.16223735     0.95700
N1268       N  0.79887950  0.71509796  0.32479898    -0.06500
N1269       N  0.80438872  0.69207917  0.35007666    -0.59000
N1270       N  0.82779070  0.78534287  0.29755410    -0.04600
N1271       N  0.85357478  0.80796355  0.30397530    -0.60200
N1272       N  0.79946687  0.78529558  0.32541947    -0.06500
N1273       N  0.80530971  0.80790366  0.35124779    -0.59200
N1274       N  0.82719414  0.71524587  0.29690022    -0.04200
N1275       N  0.85259997  0.69240683  0.30266638    -0.60700
Mn1276     Mn  0.82883459  0.75048178  0.24941771     1.18400
C1277       C  0.83798180  0.67812606  0.33588667     0.98000
C1278       C  0.83916256  0.82188921  0.33755813     0.98600
N1279       N  0.70361311  0.71572512  0.17253253    -0.06500
N1280       N  0.69803874  0.69276492  0.14712923    -0.62800
N1281       N  0.67568105  0.78582807  0.20093026    -0.05300
N1282       N  0.65017499  0.80860274  0.19535886    -0.63500
N1283       N  0.70385362  0.78608197  0.17293257    -0.06000
N1284       N  0.69810459  0.80914850  0.14778817    -0.63100
N1285       N  0.67573113  0.71544830  0.20089377    -0.04900
N1286       N  0.65078934  0.69212846  0.19556486    -0.63800
Mn1287     Mn  0.75145478  0.75089019  0.17147446     1.10700
C1288       C  0.66510446  0.67823645  0.16196839     0.99200
C1289       C  0.66449855  0.82304574  0.16214707     0.99300
N1290       N  0.70387349  0.78595821  0.32494192    -0.06000
N1291       N  0.69790158  0.80854672  0.35077483    -0.61400
N1292       N  0.67494651  0.71585567  0.29630426    -0.05300
N1293       N  0.64883586  0.69347676  0.30244812    -0.58100
N1294       N  0.70349530  0.71554080  0.32433130    -0.06700
N1295       N  0.69748084  0.69280859  0.34978236    -0.61000
N1296       N  0.67585085  0.78621246  0.29628374    -0.05600
N1297       N  0.65050342  0.80906707  0.30197917    -0.58200
Mn1298     Mn  0.75146258  0.75045905  0.32620302     1.20200
Mn1299     Mn  0.67420317  0.75082916  0.24850973     1.10100
Cl1300     Cl  0.75150794  0.75068013  0.24890552    -0.86100
C1301       C  0.66446216  0.82295314  0.33614747     0.96200
C1302       C  0.66311746  0.67909133  0.33605325     0.96000
C1303       C  0.64597031  0.65112203  0.14284484    -0.05500
C1304       C  0.63124555  0.65269527  0.10250229    -0.02600
C1305       C  0.61190116  0.62719722  0.08465360     0.02400
C1306       C  0.60743517  0.59990552  0.10693677    -0.05500
C1307       C  0.62218747  0.59832948  0.14728973    -0.02600
C1308       C  0.64166189  0.62380442  0.16509005     0.02400
C1309       C  0.63477414  0.68091055  0.07977628     0.37000
C1310       C  0.61833717  0.57021483  0.17017164     0.37000
C1311       C  0.65897597  0.62144704  0.20563036     0.35400
C1312       C  0.59473960  0.62956660  0.04405886     0.35400
N1313       N  0.67312960  0.61948723  0.23780594    -0.39400
N1314       N  0.58072168  0.63156897  0.01183237    -0.39400
N1315       N  0.61525455  0.54779205  0.18843023    -0.38800
N1316       N  0.63757042  0.70345372  0.06173499    -0.38800
C1317       C  0.60812504  0.59881518  0.39260322    -0.05500
C1318       C  0.59596709  0.60833496  0.35309769    -0.02600
C1319       C  0.61293900  0.63470872  0.33518825     0.02400
C1320       C  0.64355772  0.65177058  0.35571282    -0.05500
C1321       C  0.65578475  0.64219115  0.39516545    -0.02600
C1322       C  0.63885592  0.61581261  0.41303881     0.02400
C1323       C  0.56688143  0.59059508  0.32945744     0.37000
C1324       C  0.68499451  0.65982827  0.41879503     0.37000
C1325       C  0.65400152  0.60647378  0.45267742     0.35400
C1326       C  0.59806114  0.64393625  0.29540199     0.35400
N1327       N  0.66673676  0.59925482  0.48409296    -0.39400
N1328       N  0.58556583  0.65105264  0.26384837    -0.39400
N1329       N  0.70812569  0.67372690  0.43797215    -0.38800
N1330       N  0.54387458  0.57659750  0.31025738    -0.38800
C1331       C  0.64487072  0.85019332  0.14318106    -0.05500
C1332       C  0.62689035  0.87288687  0.16768389    -0.02600
C1333       C  0.60770780  0.89832414  0.14969701     0.02400
C1334       C  0.60633822  0.90150934  0.10695096    -0.05500
C1335       C  0.62434522  0.87881792  0.08245757    -0.02600
C1336       C  0.64334899  0.85331197  0.10044107     0.02400
C1337       C  0.62920496  0.87086780  0.21164751     0.37000
C1338       C  0.62227907  0.88091064  0.03849305     0.37000
C1339       C  0.65978790  0.82966458  0.07453895     0.35400
C1340       C  0.59083853  0.92179132  0.17560611     0.35400
N1341       N  0.67277321  0.81083934  0.05378191    -0.39400
N1342       N  0.57744169  0.94045208  0.19636099    -0.39400
N1343       N  0.62085614  0.88231937  0.00342794    -0.38800
N1344       N  0.63087567  0.86951656  0.24671006    -0.38800
C1345       C  0.89404179  0.59990321  0.10723426    -0.05500
C1346       C  0.87925224  0.59820297  0.14730823    -0.02600
C1347       C  0.86075649  0.62385182  0.16526835     0.02400
C1348       C  0.85693978  0.65136262  0.14326363    -0.05500
C1349       C  0.87179577  0.65305813  0.10322858    -0.02600
C1350       C  0.89037382  0.62744828  0.08532109     0.02400
C1351       C  0.88189768  0.56975466  0.16964356     0.37000
C1352       C  0.86932946  0.68153430  0.08094430     0.37000
C1353       C  0.90728312  0.62982332  0.04491052     0.35400
C1354       C  0.84435604  0.62160698  0.20590988     0.35400
N1355       N  0.92103684  0.63170491  0.01280018    -0.39400
N1356       N  0.83111439  0.61981073  0.23825023    -0.39400
N1357       N  0.86746988  0.70429208  0.06324716    -0.38800
N1358       N  0.88391570  0.54703736  0.18742140    -0.38800
C1359       C  0.89284001  0.90177768  0.39391330    -0.05500
C1360       C  0.87625716  0.87827203  0.41811822    -0.02600
C1361       C  0.85909184  0.85211170  0.39975905     0.02400
C1362       C  0.85795478  0.84923397  0.35695058    -0.05500
C1363       C  0.87438270  0.87280278  0.33275837    -0.02600
C1364       C  0.89160831  0.89892350  0.35111048     0.02400
C1365       C  0.87789584  0.88033757  0.46210833     0.37000
C1366       C  0.87237323  0.87090371  0.28876513     0.37000
C1367       C  0.90643246  0.92343438  0.32553047     0.35400
C1368       C  0.84413576  0.82763502  0.42531670     0.35400
N1369       N  0.91809990  0.94292394  0.30497369    -0.39400
N1370       N  0.83234690  0.80817816  0.44586015    -0.39400
N1371       N  0.87088396  0.86951658  0.25369537    -0.38800
N1372       N  0.87902429  0.88186850  0.49717871    -0.38800
C1373       C  0.85704318  0.65096716  0.35505972    -0.05500
C1374       C  0.83286360  0.62589046  0.36692288    -0.02600
C1375       C  0.85082498  0.60042068  0.38607331     0.02400
C1376       C  0.89328071  0.59951005  0.39274815    -0.05500
C1377       C  0.91749517  0.62446210  0.38048074    -0.02600
C1378       C  0.89944783  0.65012987  0.36194338     0.02400
C1379       C  0.78967195  0.62560835  0.35776675     0.37000
C1380       C  0.96090262  0.62439919  0.38845888     0.37000
C1381       C  0.92454038  0.67618309  0.35151010     0.35400
C1382       C  0.82555451  0.57474686  0.39763681     0.35400
N1383       N  0.94465906  0.69693624  0.34335923    -0.39400
N1384       N  0.80524369  0.55436132  0.40686163    -0.39400
N1385       N  0.99548802  0.62442083  0.39488167    -0.38800
N1386       N  0.75530749  0.62528537  0.35019596    -0.38800
C1387       C  0.60636198  0.90076588  0.39476470    -0.05500
C1388       C  0.58319352  0.87961335  0.37159188    -0.02600
C1389       C  0.60206086  0.85454991  0.35237160     0.02400
C1390       C  0.64453697  0.84988755  0.35607973    -0.05500
C1391       C  0.66767624  0.87093406  0.37945086    -0.02600
C1392       C  0.64880967  0.89598781  0.39868705     0.02400
C1393       C  0.53939921  0.88266052  0.36854081     0.37000
C1394       C  0.71142912  0.86771364  0.38286599     0.37000
C1395       C  0.67386701  0.91721924  0.42171620     0.35400
C1396       C  0.57697929  0.83307868  0.32977068     0.35400
N1397       N  0.69399105  0.93398051  0.44018193    -0.39400
N1398       N  0.55686003  0.81606872  0.31171062    -0.39400
N1399       N  0.74631500  0.86541901  0.38581746    -0.38800
N1400       N  0.50446995  0.88479048  0.36594107    -0.38800
C1401       C  0.89372484  0.90186768  0.10627194    -0.05500
C1402       C  0.85108162  0.90003531  0.11027222    -0.02600
C1403       C  0.83306951  0.87441182  0.12888333     0.02400
C1404       C  0.85748184  0.85026449  0.14363022    -0.05500
C1405       C  0.90012005  0.85209454  0.13957179    -0.02600
C1406       C  0.91813839  0.87775500  0.12107571     0.02400
C1407       C  0.82559266  0.92510918  0.09688193     0.37000
C1408       C  0.92563067  0.82703255  0.15292025     0.37000
C1409       C  0.96186888  0.87869298  0.11611319     0.35400
C1410       C  0.78938862  0.87364153  0.13424117     0.35400
N1411       N  0.99673496  0.87932996  0.11224516    -0.39400
N1412       N  0.75456570  0.87322087  0.13849348    -0.39400
N1413       N  0.94605517  0.80706645  0.16345791    -0.38800
N1414       N  0.80522861  0.94510479  0.08631792    -0.38800
N1415       N  0.95151034  0.96581718  0.92464928    -0.06300
N1416       N  0.94565894  0.94296988  0.89921397    -0.58400
N1417       N  0.92385401  0.53611982  0.95233155    -0.06000
N1418       N  0.89814653  0.55870009  0.94603097    -0.60500
N1419       N  0.95200491  0.53596993  0.92426373    -0.05600
N1420       N  0.94607770  0.55852249  0.89834296    -0.58400
N1421       N  0.92323198  0.96601848  0.95255300    -0.05200
N1422       N  0.89747028  0.94330857  0.94656072    -0.60900
C1423       C  0.91184865  0.92908791  0.91318028     0.95900
C1424       C  0.91240915  0.57251361  0.91230478     0.95700
N1425       N  0.95242041  0.53620673  0.57683698    -0.06500
N1426       N  0.94644858  0.55863270  0.60289148    -0.59000
N1427       N  0.92373665  0.96611662  0.54809806    -0.04600
N1428       N  0.89819674  0.94326935  0.55362634    -0.60200
N1429       N  0.95213543  0.96601778  0.57640755    -0.06500
N1430       N  0.94650195  0.94312660  0.60176702    -0.59200
N1431       N  0.92437513  0.53652866  0.54812812    -0.04200
N1432       N  0.89895870  0.55934186  0.55385399    -0.60300
Mn1433     Mn  0.92243275  0.00123174  0.50027603     1.18400
C1434       C  0.91309598  0.57288680  0.58809375     0.98000
C1435       C  0.91277947  0.92908902  0.58719543     0.98600
N1436       N  0.54778088  0.53548725  0.92485365    -0.06500
N1437       N  0.55393770  0.55796378  0.89900968    -0.62800
N1438       N  0.57527957  0.96496093  0.95370148    -0.05300
N1439       N  0.60053547  0.94201673  0.94828396    -0.63500
N1440       N  0.54720269  0.96505237  0.92510014    -0.06000
N1441       N  0.55305887  0.94223928  0.89957112    -0.63100
N1442       N  0.57636147  0.53528737  0.95286028    -0.04900
N1443       N  0.60262617  0.55748123  0.94630671    -0.63800
Mn1444     Mn  0.49967930  0.50066727  0.92362142     1.10700
C1445       C  0.58842792  0.57164159  0.91249622     0.99200
C1446       C  0.58648568  0.92787894  0.91434924     0.99300
N1447       N  0.54760402  0.96571241  0.57701803    -0.06000
N1448       N  0.55331442  0.94271802  0.60228590    -0.61400
N1449       N  0.57611691  0.53611191  0.54856369    -0.05300
N1450       N  0.60163104  0.55906514  0.55403387    -0.58100
N1451       N  0.54837442  0.53601192  0.57707669    -0.06700
N1452       N  0.55463006  0.55874085  0.60271305    -0.61000
N1453       N  0.57572152  0.96581736  0.54896585    -0.05600
N1454       N  0.60114846  0.94300768  0.55462512    -0.58200
Mn1455     Mn  0.50018799  0.50102453  0.57843698     1.20200
Mn1456     Mn  0.57717357  0.50058447  0.50109364     1.10100
Cl1457     Cl  0.49988624  0.50094757  0.50096927    -0.86100
C1458       C  0.58683821  0.92870008  0.58794801     0.96200
C1459       C  0.58783393  0.57292984  0.58787366     0.96000
N1460       N  0.79924199  0.78597790  0.67338427    -0.06300
N1461       N  0.80480260  0.80892993  0.64809638    -0.58400
N1462       N  0.82717176  0.71532993  0.70150524    -0.06000
N1463       N  0.85221133  0.69221315  0.69626365    -0.60500
N1464       N  0.79922071  0.71565970  0.67272563    -0.05600
N1465       N  0.80488202  0.69292293  0.64707727    -0.58400
N1466       N  0.82758912  0.78588263  0.70175128    -0.05200
N1467       N  0.85305728  0.80879948  0.69628880    -0.60900
C1468       C  0.83844842  0.82302212  0.66273566     0.95900
C1469       C  0.83793217  0.67846724  0.66223583     0.95700
N1470       N  0.79887847  0.71509933  0.82479769    -0.06500
N1471       N  0.80438785  0.69208093  0.85007596    -0.59000
N1472       N  0.82778908  0.78534416  0.79755278    -0.04600
N1473       N  0.85357344  0.80796474  0.80397465    -0.60200
N1474       N  0.79946545  0.78529662  0.82541854    -0.06500
N1475       N  0.80530877  0.80790415  0.85124745    -0.59200
N1476       N  0.82719329  0.71524723  0.79689912    -0.04200
N1477       N  0.85259946  0.69240859  0.80266593    -0.60700
Mn1478     Mn  0.82883343  0.75048294  0.74941635     1.18400
C1479       C  0.83798141  0.67812795  0.83588620     0.98000
C1480       C  0.83916122  0.82188984  0.83755811     0.98600
N1481       N  0.70361190  0.71572539  0.67253223    -0.06500
N1482       N  0.69803671  0.69276510  0.64712882    -0.62800
N1483       N  0.67568090  0.78582859  0.70092913    -0.05300
N1484       N  0.65017589  0.80860371  0.69535819    -0.63500
N1485       N  0.70385306  0.78608185  0.67293132    -0.06000
N1486       N  0.69810535  0.80914846  0.64778720    -0.63100
N1487       N  0.67572956  0.71544900  0.70089350    -0.04900
N1488       N  0.65078726  0.69212943  0.69556420    -0.63800
Mn1489     Mn  0.75145364  0.75089005  0.67147337     1.10700
C1490       C  0.66510213  0.67823751  0.66196835     0.99200
C1491       C  0.66449992  0.82304664  0.66214631     0.99300
N1492       N  0.70387268  0.78595947  0.82494086    -0.06000
N1493       N  0.69790159  0.80854838  0.85077314    -0.61400
N1494       N  0.67494491  0.71585693  0.79630371    -0.05300
N1495       N  0.64883267  0.69347917  0.80244815    -0.58100
N1496       N  0.70349344  0.71554171  0.82433053    -0.06700
N1497       N  0.69747729  0.69281036  0.84978298    -0.61000
N1498       N  0.67585007  0.78621382  0.79628265    -0.05600
N1499       N  0.65050364  0.80906898  0.80197722    -0.58200
Mn1500     Mn  0.75146144  0.75045997  0.82620196     1.20200
Mn1501     Mn  0.67420213  0.75083008  0.74850886     1.10100
Cl1502     Cl  0.75150683  0.75068078  0.74890436    -0.86100
C1503       C  0.66446257  0.82295535  0.83614545     0.96200
C1504       C  0.66311265  0.67909399  0.83605411     0.96000
C1505       C  0.64596716  0.65112274  0.64284464    -0.05500
C1506       C  0.63124752  0.65269483  0.60250066    -0.02600
C1507       C  0.61190423  0.62719617  0.58465154     0.02400
C1508       C  0.60743438  0.59990589  0.60693628    -0.05500
C1509       C  0.62218145  0.59833119  0.64729128    -0.02600
C1510       C  0.64165523  0.62380656  0.66509185     0.02400
C1511       C  0.63477896  0.68090922  0.57977308     0.37000
C1512       C  0.61832769  0.57021775  0.67017535     0.37000
C1513       C  0.65896424  0.62145030  0.70563449     0.35400
C1514       C  0.59474869  0.62956407  0.54405420     0.35400
N1515       N  0.67311417  0.61949149  0.73781166    -0.39400
N1516       N  0.58073573  0.63156515  0.51182543    -0.39400
N1517       N  0.61524226  0.54779590  0.68843514    -0.38800
N1518       N  0.63757764  0.70345163  0.56173067    -0.38800
C1519       C  0.60811691  0.59881963  0.89260560    -0.05500
C1520       C  0.59595820  0.60834043  0.85310046    -0.02600
C1521       C  0.61292959  0.63471409  0.83519146     0.02400
C1522       C  0.64355052  0.65177517  0.85571495    -0.05500
C1523       C  0.65577523  0.64219648  0.89516872    -0.02600
C1524       C  0.63884591  0.61581871  0.91304231     0.02400
C1525       C  0.56687015  0.59060184  0.82946128     0.37000
C1526       C  0.68498221  0.65983538  0.91879950     0.37000
C1527       C  0.65398678  0.60648245  0.95268384     0.35400
C1528       C  0.59804811  0.64394418  0.79540759     0.35400
N1529       N  0.66671780  0.59926578  0.98410216    -0.39400
N1530       N  0.58554915  0.65106276  0.76385621    -0.39400
N1531       N  0.70811071  0.67373573  0.93797796    -0.38800
N1532       N  0.54386086  0.57660562  0.81026210    -0.38800
C1533       C  0.64487329  0.85019420  0.64318086    -0.05500
C1534       C  0.62689525  0.87288839  0.66768402    -0.02600
C1535       C  0.60771027  0.89832484  0.64969778     0.02400
C1536       C  0.60633786  0.90150863  0.60695146    -0.05500
C1537       C  0.62434252  0.87881695  0.58245773    -0.02600
C1538       C  0.64334887  0.85331186  0.60044056     0.02400
C1539       C  0.62921615  0.87087145  0.71164765     0.37000
C1540       C  0.62227065  0.88090767  0.53849322     0.37000
C1541       C  0.65978839  0.82966502  0.57453820     0.35400
C1542       C  0.59084053  0.92179165  0.67560703     0.35400
N1543       N  0.67277482  0.81084048  0.55378095    -0.39400
N1544       N  0.57744302  0.94045181  0.69636221    -0.39400
N1545       N  0.62084232  0.88231475  0.50342809    -0.38800
N1546       N  0.63089237  0.86952192  0.74671019    -0.38800
C1547       C  0.89404409  0.59990372  0.60723421    -0.05500
C1548       C  0.87926619  0.59820672  0.64731291    -0.02600
C1549       C  0.86076893  0.62385563  0.66527205     0.02400
C1550       C  0.85694040  0.65136312  0.64326196    -0.05500
C1551       C  0.87178507  0.65305539  0.60322265    -0.02600
C1552       C  0.89036489  0.62744551  0.58531612     0.02400
C1553       C  0.88192506  0.56976198  0.66965502     0.37000
C1554       C  0.86930575  0.68152786  0.58093170     0.37000
C1555       C  0.90726553  0.62981819  0.54490163     0.35400
C1556       C  0.84437841  0.62161301  0.70591791     0.35400
N1557       N  0.92101279  0.63169821  0.51278838    -0.39400
N1558       N  0.83114436  0.61981872  0.73826150    -0.39400
N1559       N  0.86743545  0.70428255  0.56322874    -0.38800
N1560       N  0.88395416  0.54704775  0.68743833    -0.38800
C1561       C  0.89283791  0.90177807  0.89391444    -0.05500
C1562       C  0.87625627  0.87827242  0.91811892    -0.02600
C1563       C  0.85909043  0.85211201  0.89975983     0.02400
C1564       C  0.85795378  0.84923471  0.85695092    -0.05500
C1565       C  0.87438106  0.87280349  0.83275934    -0.02600
C1566       C  0.89160594  0.89892470  0.85111136     0.02400
C1567       C  0.87789540  0.88033747  0.96210907     0.37000
C1568       C  0.87237278  0.87090453  0.78876591     0.37000
C1569       C  0.90642777  0.92343651  0.82553163     0.35400
C1570       C  0.84413438  0.82763531  0.92531731     0.35400
N1571       N  0.91809326  0.94292682  0.80497569    -0.39400
N1572       N  0.83234544  0.80817880  0.94586072    -0.39400
N1573       N  0.87088475  0.86951753  0.75369590    -0.38800
N1574       N  0.87902494  0.88186844  0.99717964    -0.38800
C1575       C  0.85704231  0.65096937  0.85505963    -0.05500
C1576       C  0.83286249  0.62589263  0.86692285    -0.02600
C1577       C  0.85082365  0.60042273  0.88607261     0.02400
C1578       C  0.89327940  0.59951174  0.89274789    -0.05500
C1579       C  0.91749377  0.62446459  0.88048262    -0.02600
C1580       C  0.89944665  0.65013235  0.86194531     0.02400
C1581       C  0.78967033  0.62561196  0.85776955     0.37000
C1582       C  0.96090044  0.62440268  0.88846519     0.37000
C1583       C  0.92453860  0.67618712  0.85151652     0.35400
C1584       C  0.82555265  0.57474941  0.89763742     0.35400
N1585       N  0.94465622  0.69694183  0.84336981    -0.39400
N1586       N  0.80524102  0.55436466  0.90686344    -0.39400
N1587       N  0.99548521  0.62442580  0.89489208    -0.38800
N1588       N  0.75530511  0.62529057  0.85020189    -0.38800
C1589       C  0.60636335  0.90076866  0.89476162    -0.05500
C1590       C  0.58319457  0.87961605  0.87158963    -0.02600
C1591       C  0.60206206  0.85455254  0.85236926     0.02400
C1592       C  0.64453787  0.84989004  0.85607727    -0.05500
C1593       C  0.66767751  0.87093653  0.87944847    -0.02600
C1594       C  0.64881083  0.89599065  0.89868430     0.02400
C1595       C  0.53940016  0.88266226  0.86854026     0.37000
C1596       C  0.71142993  0.86771525  0.88286522     0.37000
C1597       C  0.67386817  0.91722167  0.92171428     0.35400
C1598       C  0.57697983  0.83308085  0.82976952     0.35400
N1599       N  0.69399204  0.93398231  0.94018076    -0.39400
N1600       N  0.55686047  0.81607038  0.81171067    -0.39400
N1601       N  0.74631559  0.86541960  0.88581822    -0.38800
N1602       N  0.50447057  0.88479157  0.86594256    -0.38800
C1603       C  0.89372463  0.90186711  0.60626985    -0.05500
C1604       C  0.85108124  0.90003551  0.61027100    -0.02600
C1605       C  0.83306849  0.87441186  0.62888093     0.02400
C1606       C  0.85748023  0.85026358  0.64362571    -0.05500
C1607       C  0.90011838  0.85209223  0.63956540    -0.02600
C1608       C  0.91813731  0.87775292  0.62107069     0.02400
C1609       C  0.82559305  0.92511031  0.59688213     0.37000
C1610       C  0.92562780  0.82702831  0.65290943     0.37000
C1611       C  0.96186748  0.87869000  0.61610616     0.35400
C1612       C  0.78938771  0.87364219  0.63423936     0.35400
N1613       N  0.99673354  0.87932622  0.61223645    -0.39400
N1614       N  0.75456470  0.87322193  0.63849203    -0.39400
N1615       N  0.94605117  0.80706060  0.66344343    -0.38800
N1616       N  0.80522961  0.94510661  0.58631930    -0.38800
loop_ 
_geom_bond_atom_site_label_1 
_geom_bond_atom_site_label_2 
_geom_bond_distance 
_geom_bond_site_symmetry_2 
_ccdc_geom_bond_type 
N1            N2   1.319       .  A
N1            N7   1.315       .  A
N1        Mn1242   2.195       .  S
N2            C9   1.352       .  A
N3            N5   1.316       .  A
N3            N4   1.320       .  A
N3         Mn625   2.200       .  S
N4           C10   1.353       .  A
N5            N6   1.321       .  A
N5         Mn838   2.207       .  S
N6           C10   1.354       .  A
N7            N8   1.320       .  A
N7         Mn221   2.204       .  S
N8            C9   1.354       .  A
C9          C147   1.489       .  S
C10         C164   1.487       .  S
N11          N17   1.316       .  A
N11          N12   1.322       .  A
N11        Mn849   2.209       .  S
N12          C20   1.353       .  A
N13          N14   1.321       .  A
N13          N15   1.315       .  A
N13         Mn19   2.205       .  S
N14          C21   1.354       .  A
N15          N16   1.320       .  A
N15       Mn1253   2.201       .  S
N16          C21   1.353       .  A
N17          N18   1.321       .  A
N17        Mn423   2.209       .  S
N18          C20   1.353       .  A
Mn19        N609   2.200   1_554  S
Mn19        N209   2.204   1_554  S
Mn19        N421   2.209       .  S
Mn19      Cl1255   2.549       .  S
C20         C133   1.486       .  S
C21         C189   1.490       .  S
N22          N23   1.319       .  A
N22          N28   1.313       .  A
N22         Mn30   2.198   1_455  S
N23          C31   1.355       .  A
N24          N26   1.315       .  A
N24          N25   1.321       .  A
N24        Mn648   2.209       .  S
N25          C32   1.355       .  A
N26          N27   1.323       .  A
N26        Mn434   2.214   1_455  S
N27          C32   1.357       .  A
N28          N29   1.319       .  A
N28        Mn244   2.199       .  S
N29          C31   1.355       .  A
Mn30       N1213   2.195   1_545  S
Mn30        N813   2.207       .  S
Mn30        N430   2.214   1_645  S
Mn30       Cl245   2.549       .  S
C31         C105   1.508       .  S
C32         C175   1.506       .  S
N33          N34   1.320       .  A
N33          N39   1.315       .  A
N33        Mn445   2.205       .  S
N34          C44   1.355       .  A
N35          N36   1.321       .  A
N35          N37   1.317       .  A
N35         Mn42   2.210       .  S
N36          C45   1.353       .  A
N37          N38   1.321       .  A
N37         Mn41   2.206       .  S
N38          C45   1.353       .  A
N39          N40   1.319       .  A
N39        Mn446   2.196       .  S
N40          C44   1.353       .  A
Mn41        N819   2.209   1_455  S
Mn41       N1227   2.200   1_445  S
Mn41        N437   2.205   1_545  S
Mn41        Cl43   2.552   1_455  S
Mn42        N630   2.209   1_544  S
Mn42        N230   2.199   1_554  S
Mn42        N443   2.196   1_545  S
Mn42        Cl43   2.547   1_455  S
Cl43      Mn1231   2.548       .  S
Cl43       Mn232   2.549   1_554  S
C44         C122   1.493       .  S
C45          C94   1.484       .  S
N46          N47   1.320       .  A
N46          N52   1.315       .  A
N46         Mn75   2.199       .  S
N47          C54   1.353       .  A
N48          N50   1.316       .  A
N48          N49   1.321       .  A
N48         Mn64   2.207       .  S
N49          C55   1.353       .  A
N50          N51   1.322       .  A
N50         Mn75   2.209       .  S
N51          C55   1.353       .  A
N52          N53   1.321       .  A
N52         Mn64   2.207       .  S
N53          C54   1.354       .  A
C54         C192   1.490       .  S
C55         C136   1.486       .  S
N56          N62   1.316       .  A
N56          N57   1.321       .  A
N56         Mn86   2.207       .  S
N57          C65   1.354       .  A
N58          N59   1.320       .  A
N58          N60   1.315       .  A
N58         Mn64   2.204       .  S
N59          C66   1.354       .  A
N60          N61   1.319       .  A
N60         Mn86   2.197       .  S
N61          C66   1.353       .  A
N62          N63   1.320       .  A
N62         Mn64   2.200       .  S
N63          C65   1.353       .  A
Mn64        Cl88   2.549       .  S
C65         C161   1.487       .  S
C66         C150   1.490       .  S
N67          N68   1.321       .  A
N67          N73   1.316       .  A
N67         Mn75   2.204       .  S
N68          C76   1.352       .  A
N69          N71   1.315       .  A
N69          N70   1.319       .  A
N69         Mn87   2.196       .  S
N70          C77   1.353       .  A
N71          N72   1.321       .  A
N71         Mn75   2.205       .  S
N72          C77   1.355       .  A
N73          N74   1.321       .  A
N73         Mn87   2.208       .  S
N74          C76   1.353       .  A
Mn75        Cl88   2.551       .  S
C76          C91   1.483       .  S
C77         C119   1.492       .  S
N78          N79   1.322       .  A
N78          N84   1.315       .  A
N78         Mn86   2.213       .  S
N79          C89   1.356       .  A
N80          N81   1.320       .  A
N80          N82   1.312       .  A
N80         Mn87   2.197       .  S
N81          C90   1.355       .  A
N82          N83   1.318       .  A
N82         Mn86   2.198       .  S
N83          C90   1.355       .  A
N84          N85   1.321       .  A
N84         Mn87   2.209       .  S
N85          C89   1.356       .  A
Mn86        Cl88   2.547       .  S
Mn87        Cl88   2.548       .  S
C89         C178   1.506       .  S
C90         C108   1.507       .  S
C91          C92   1.413       .  A
C91          C96   1.412       .  A
C92          C93   1.412       .  A
C92          C97   1.451       .  S
C93          C94   1.412       .  A
C93         C100   1.451       .  S
C94          C95   1.413       .  A
C95          C96   1.412       .  A
C95          C98   1.451       .  S
C96          C99   1.451       .  S
C97         N104   1.157       .  T
C98         N103   1.157       .  T
C99         N101   1.157       .  T
C100        N102   1.157       .  T
C105        C106   1.421       .  A
C105        C110   1.421       .  A
C106        C107   1.414       .  A
C106        C111   1.454       .  S
C107        C108   1.421       .  A
C107        C114   1.453       .  S
C108        C109   1.421       .  A
C109        C110   1.413       .  A
C109        C112   1.454       .  S
C110        C113   1.453       .  S
C111        N118   1.158       .  T
C112        N117   1.158       .  T
C113        N115   1.158       .  T
C114        N116   1.158       .  T
C119        C120   1.416       .  A
C119        C124   1.415       .  A
C120        C121   1.412       .  A
C120        C125   1.452       .  S
C121        C122   1.416       .  A
C121        C128   1.452       .  S
C122        C123   1.416       .  A
C123        C124   1.412       .  A
C123        C126   1.452       .  S
C124        C127   1.452       .  S
C125        N132   1.157       .  T
C126        N131   1.157       .  T
C127        N129   1.157       .  T
C128        N130   1.157       .  T
C133        C134   1.413       .  A
C133        C138   1.412       .  A
C134        C135   1.413       .  A
C134        C139   1.451       .  S
C135        C136   1.413       .  A
C135        C142   1.452       .  S
C136        C137   1.413       .  A
C137        C138   1.413       .  A
C137        C140   1.451       .  S
C138        C141   1.451       .  S
C139        N146   1.157       .  T
C140        N145   1.157       .  T
C141        N143   1.157       .  T
C142        N144   1.158       .  T
C147        C148   1.415       .  A
C147        C152   1.416       .  A
C148        C149   1.411       .  A
C148        C153   1.453       .  S
C149        C150   1.416       .  A
C149        C156   1.452       .  S
C150        C151   1.415       .  A
C151        C152   1.411       .  A
C151        C154   1.453       .  S
C152        C155   1.452       .  S
C153        N160   1.158       .  T
C154        N159   1.158       .  T
C155        N157   1.157       .  T
C156        N158   1.157       .  T
C161        C162   1.413       .  A
C161        C166   1.415       .  A
C162        C163   1.412       .  A
C162        C167   1.452       .  S
C163        C164   1.415       .  A
C163        C170   1.451       .  S
C164        C165   1.413       .  A
C165        C166   1.411       .  A
C165        C168   1.452       .  S
C166        C169   1.451       .  S
C167        N174   1.157       .  T
C168        N173   1.157       .  T
C169        N171   1.157       .  T
C170        N172   1.157       .  T
C175        C176   1.418       .  A
C175        C180   1.420       .  A
C176        C177   1.417       .  A
C176        C181   1.452       .  S
C177        C178   1.419       .  A
C177        C184   1.452       .  S
C178        C179   1.418       .  A
C179        C180   1.416       .  A
C179        C182   1.453       .  S
C180        C183   1.452       .  S
C181        N188   1.158       .  T
C182        N187   1.158       .  T
C183        N185   1.158       .  T
C184        N186   1.158       .  T
C189        C190   1.415       .  A
C189        C194   1.415       .  A
C190        C191   1.412       .  A
C190        C195   1.452       .  S
C191        C192   1.415       .  A
C191        C198   1.452       .  S
C192        C193   1.415       .  A
C193        C194   1.412       .  A
C193        C196   1.452       .  S
C194        C197   1.452       .  S
C195        N202   1.157       .  T
C196        N201   1.157       .  T
C197        N199   1.158       .  T
C198        N200   1.158       .  T
N203        N204   1.319       .  A
N203        N209   1.315       .  A
N203      Mn1444   2.195       .  S
N204        C211   1.352       .  A
N205        N207   1.316       .  A
N205        N206   1.320       .  A
N205       Mn423   2.200   1_556  S
N206        C212   1.353       .  A
N207        N208   1.321       .  A
N207      Mn1040   2.207       .  S
N208        C212   1.354       .  A
N209        N210   1.320       .  A
N210        C211   1.354       .  A
C211        C349   1.489       .  S
C212        C366   1.487       .  S
N213        N219   1.316       .  A
N213        N214   1.322       .  A
N213      Mn1051   2.209       .  S
N214        C222   1.353       .  A
N215        N216   1.321       .  A
N215        N217   1.315       .  A
N215       Mn221   2.205       .  S
N216        C223   1.354       .  A
N217        N218   1.320       .  A
N217      Mn1455   2.201       .  S
N218        C223   1.353       .  A
N219        N220   1.321       .  A
N219       Mn625   2.209       .  S
N220        C222   1.353       .  A
Mn221       N407   2.200       .  S
Mn221       N623   2.209       .  S
Mn221     Cl1457   2.549       .  S
C222        C335   1.486       .  S
C223        C391   1.490       .  S
N224        N225   1.319       .  A
N224        N230   1.313       .  A
N224       Mn232   2.198   1_455  S
N225        C233   1.355       .  A
N226        N228   1.315       .  A
N226        N227   1.321       .  A
N226       Mn446   2.209   1_556  S
N227        C234   1.355       .  A
N228        N229   1.323       .  A
N228       Mn636   2.214   1_455  S
N229        C234   1.357       .  A
N230        N231   1.319       .  A
N231        C233   1.355       .  A
Mn232      N1415   2.195   1_545  S
Mn232      N1015   2.207       .  S
Mn232       N632   2.214   1_645  S
C233        C307   1.507       .  S
C234        C377   1.506       .  S
N235        N236   1.320       .  A
N235        N241   1.315       .  A
N235       Mn647   2.205       .  S
N236        C246   1.355       .  A
N237        N238   1.321       .  A
N237        N239   1.317       .  A
N237       Mn244   2.210       .  S
N238        C247   1.353       .  A
N239        N240   1.321       .  A
N239       Mn243   2.206       .  S
N240        C247   1.353       .  A
N241        N242   1.319       .  A
N241       Mn648   2.196       .  S
N242        C246   1.353       .  A
Mn243      N1021   2.209   1_455  S
Mn243      N1429   2.200   1_445  S
Mn243       N639   2.205   1_545  S
Mn243      Cl245   2.552   1_455  S
Mn244       N428   2.209   1_545  S
Mn244       N645   2.196   1_545  S
Mn244      Cl245   2.547   1_455  S
Cl245     Mn1433   2.548       .  S
C246        C324   1.493       .  S
C247        C296   1.484       .  S
N248        N249   1.320       .  A
N248        N254   1.315       .  A
N248       Mn277   2.199       .  S
N249        C256   1.353       .  A
N250        N252   1.316       .  A
N250        N251   1.321       .  A
N250       Mn266   2.207       .  S
N251        C257   1.353       .  A
N252        N253   1.322       .  A
N252       Mn277   2.209       .  S
N253        C257   1.353       .  A
N254        N255   1.321       .  A
N254       Mn266   2.207       .  S
N255        C256   1.354       .  A
C256        C394   1.490       .  S
C257        C338   1.486       .  S
N258        N264   1.316       .  A
N258        N259   1.321       .  A
N258       Mn288   2.206       .  S
N259        C267   1.354       .  A
N260        N261   1.320       .  A
N260        N262   1.315       .  A
N260       Mn266   2.204       .  S
N261        C268   1.354       .  A
N262        N263   1.319       .  A
N262       Mn288   2.197       .  S
N263        C268   1.353       .  A
N264        N265   1.320       .  A
N264       Mn266   2.200       .  S
N265        C267   1.353       .  A
Mn266      Cl290   2.549       .  S
C267        C363   1.487       .  S
C268        C352   1.490       .  S
N269        N270   1.321       .  A
N269        N275   1.316       .  A
N269       Mn277   2.204       .  S
N270        C278   1.352       .  A
N271        N273   1.315       .  A
N271        N272   1.319       .  A
N271       Mn289   2.196       .  S
N272        C279   1.353       .  A
N273        N274   1.321       .  A
N273       Mn277   2.205       .  S
N274        C279   1.355       .  A
N275        N276   1.321       .  A
N275       Mn289   2.208       .  S
N276        C278   1.353       .  A
Mn277      Cl290   2.551       .  S
C278        C293   1.483       .  S
C279        C321   1.492       .  S
N280        N281   1.322       .  A
N280        N286   1.315       .  A
N280       Mn288   2.213       .  S
N281        C291   1.356       .  A
N282        N283   1.320       .  A
N282        N284   1.312       .  A
N282       Mn289   2.197       .  S
N283        C292   1.355       .  A
N284        N285   1.318       .  A
N284       Mn288   2.198       .  S
N285        C292   1.355       .  A
N286        N287   1.321       .  A
N286       Mn289   2.209       .  S
N287        C291   1.356       .  A
Mn288      Cl290   2.547       .  S
Mn289      Cl290   2.548       .  S
C291        C380   1.506       .  S
C292        C310   1.507       .  S
C293        C294   1.413       .  A
C293        C298   1.412       .  A
C294        C295   1.412       .  A
C294        C299   1.451       .  S
C295        C296   1.412       .  A
C295        C302   1.451       .  S
C296        C297   1.413       .  A
C297        C298   1.412       .  A
C297        C300   1.451       .  S
C298        C301   1.451       .  S
C299        N306   1.157       .  T
C300        N305   1.157       .  T
C301        N303   1.157       .  T
C302        N304   1.157       .  T
C307        C308   1.421       .  A
C307        C312   1.421       .  A
C308        C309   1.414       .  A
C308        C313   1.454       .  S
C309        C310   1.421       .  A
C309        C316   1.453       .  S
C310        C311   1.421       .  A
C311        C312   1.413       .  A
C311        C314   1.454       .  S
C312        C315   1.453       .  S
C313        N320   1.158       .  T
C314        N319   1.158       .  T
C315        N317   1.158       .  T
C316        N318   1.158       .  T
C321        C322   1.416       .  A
C321        C326   1.415       .  A
C322        C323   1.412       .  A
C322        C327   1.452       .  S
C323        C324   1.416       .  A
C323        C330   1.452       .  S
C324        C325   1.416       .  A
C325        C326   1.412       .  A
C325        C328   1.452       .  S
C326        C329   1.452       .  S
C327        N334   1.157       .  T
C328        N333   1.157       .  T
C329        N331   1.157       .  T
C330        N332   1.157       .  T
C335        C336   1.413       .  A
C335        C340   1.412       .  A
C336        C337   1.413       .  A
C336        C341   1.451       .  S
C337        C338   1.413       .  A
C337        C344   1.452       .  S
C338        C339   1.413       .  A
C339        C340   1.413       .  A
C339        C342   1.451       .  S
C340        C343   1.451       .  S
C341        N348   1.157       .  T
C342        N347   1.157       .  T
C343        N345   1.157       .  T
C344        N346   1.158       .  T
C349        C350   1.415       .  A
C349        C354   1.416       .  A
C350        C351   1.411       .  A
C350        C355   1.453       .  S
C351        C352   1.416       .  A
C351        C358   1.452       .  S
C352        C353   1.415       .  A
C353        C354   1.411       .  A
C353        C356   1.453       .  S
C354        C357   1.452       .  S
C355        N362   1.158       .  T
C356        N361   1.158       .  T
C357        N359   1.157       .  T
C358        N360   1.157       .  T
C363        C364   1.413       .  A
C363        C368   1.415       .  A
C364        C365   1.412       .  A
C364        C369   1.452       .  S
C365        C366   1.415       .  A
C365        C372   1.451       .  S
C366        C367   1.413       .  A
C367        C368   1.411       .  A
C367        C370   1.452       .  S
C368        C371   1.451       .  S
C369        N376   1.158       .  T
C370        N375   1.157       .  T
C371        N373   1.157       .  T
C372        N374   1.157       .  T
C377        C378   1.418       .  A
C377        C382   1.420       .  A
C378        C379   1.417       .  A
C378        C383   1.452       .  S
C379        C380   1.419       .  A
C379        C386   1.452       .  S
C380        C381   1.418       .  A
C381        C382   1.416       .  A
C381        C384   1.453       .  S
C382        C385   1.452       .  S
C383        N390   1.158       .  T
C384        N389   1.158       .  T
C385        N387   1.158       .  T
C386        N388   1.158       .  T
C391        C392   1.415       .  A
C391        C396   1.415       .  A
C392        C393   1.412       .  A
C392        C397   1.452       .  S
C393        C394   1.415       .  A
C393        C400   1.452       .  S
C394        C395   1.415       .  A
C395        C396   1.412       .  A
C395        C398   1.452       .  S
C396        C399   1.452       .  S
C397        N404   1.157       .  T
C398        N403   1.157       .  T
C399        N401   1.158       .  T
C400        N402   1.158       .  T
N405        N406   1.319       .  A
N405        N411   1.315       .  A
N405       Mn838   2.194   1_565  S
N406        C413   1.352       .  A
N407        N409   1.316       .  A
N407        N408   1.320       .  A
N408        C414   1.353       .  A
N409        N410   1.320       .  A
N409      Mn1242   2.207       .  S
N410        C414   1.354       .  A
N411        N412   1.320       .  A
N411       Mn625   2.204   1_565  S
N412        C413   1.354       .  A
C413        C551   1.489       .  S
C414        C568   1.487       .  S
N415        N421   1.316       .  A
N415        N416   1.322       .  A
N415      Mn1253   2.209       .  S
N416        C424   1.353       .  A
N417        N418   1.321       .  A
N417        N419   1.315       .  A
N417       Mn423   2.205   1_565  S
N418        C425   1.354       .  A
N419        N420   1.320       .  A
N419       Mn849   2.201   1_565  S
N420        C425   1.353       .  A
N421        N422   1.321       .  A
N422        C424   1.353       .  A
Mn423       N613   2.204   1_544  S
Mn423      Cl851   2.549       .  S
C424        C537   1.486       .  S
C425        C593   1.490       .  S
N426        N427   1.319       .  A
N426        N432   1.313       .  A
N426       Mn434   2.198   1_455  S
N427        C435   1.355       .  A
N428        N430   1.315       .  A
N428        N429   1.321       .  A
N429        C436   1.355       .  A
N430        N431   1.323       .  A
N431        C436   1.357       .  A
N432        N433   1.319       .  A
N432       Mn648   2.199       .  S
N433        C435   1.355       .  A
Mn434       N809   2.195       .  S
Mn434      N1217   2.207       .  S
Mn434      Cl649   2.549       .  S
C435        C509   1.507       .  S
C436        C579   1.506       .  S
N437        N438   1.320       .  A
N437        N443   1.315       .  A
N438        C448   1.355       .  A
N439        N440   1.321       .  A
N439        N441   1.317       .  A
N439       Mn446   2.210       .  S
N440        C449   1.353       .  A
N441        N442   1.321       .  A
N441       Mn445   2.206       .  S
N442        C449   1.353       .  A
N443        N444   1.319       .  A
N444        C448   1.353       .  A
Mn445      N1223   2.209   1_455  S
Mn445       N823   2.199   1_455  S
Mn445      Cl447   2.552   1_455  S
Mn446       N634   2.199   1_554  S
Mn446      Cl447   2.547   1_455  S
Cl447      Mn827   2.548       .  S
Cl447      Mn636   2.549   1_554  S
C448        C526   1.492       .  S
C449        C498   1.484       .  S
N450        N451   1.320       .  A
N450        N456   1.315       .  A
N450       Mn479   2.199       .  S
N451        C458   1.353       .  A
N452        N454   1.316       .  A
N452        N453   1.321       .  A
N452       Mn468   2.207       .  S
N453        C459   1.353       .  A
N454        N455   1.322       .  A
N454       Mn479   2.209       .  S
N455        C459   1.353       .  A
N456        N457   1.321       .  A
N456       Mn468   2.207       .  S
N457        C458   1.354       .  A
C458        C596   1.490       .  S
C459        C540   1.486       .  S
N460        N466   1.316       .  A
N460        N461   1.321       .  A
N460       Mn490   2.206       .  S
N461        C469   1.354       .  A
N462        N463   1.320       .  A
N462        N464   1.315       .  A
N462       Mn468   2.204       .  S
N463        C470   1.354       .  A
N464        N465   1.319       .  A
N464       Mn490   2.197       .  S
N465        C470   1.353       .  A
N466        N467   1.320       .  A
N466       Mn468   2.200       .  S
N467        C469   1.353       .  A
Mn468      Cl492   2.548       .  S
C469        C565   1.487       .  S
C470        C554   1.490       .  S
N471        N472   1.321       .  A
N471        N477   1.316       .  A
N471       Mn479   2.204       .  S
N472        C480   1.352       .  A
N473        N475   1.315       .  A
N473        N474   1.319       .  A
N473       Mn491   2.196       .  S
N474        C481   1.353       .  A
N475        N476   1.321       .  A
N475       Mn479   2.205       .  S
N476        C481   1.355       .  A
N477        N478   1.321       .  A
N477       Mn491   2.209       .  S
N478        C480   1.353       .  A
Mn479      Cl492   2.551       .  S
C480        C495   1.483       .  S
C481        C523   1.492       .  S
N482        N483   1.322       .  A
N482        N488   1.315       .  A
N482       Mn490   2.213       .  S
N483        C493   1.356       .  A
N484        N485   1.320       .  A
N484        N486   1.313       .  A
N484       Mn491   2.197       .  S
N485        C494   1.355       .  A
N486        N487   1.318       .  A
N486       Mn490   2.198       .  S
N487        C494   1.355       .  A
N488        N489   1.321       .  A
N488       Mn491   2.210       .  S
N489        C493   1.356       .  A
Mn490      Cl492   2.547       .  S
Mn491      Cl492   2.548       .  S
C493        C582   1.506       .  S
C494        C512   1.507       .  S
C495        C496   1.413       .  A
C495        C500   1.412       .  A
C496        C497   1.412       .  A
C496        C501   1.451       .  S
C497        C498   1.412       .  A
C497        C504   1.451       .  S
C498        C499   1.413       .  A
C499        C500   1.412       .  A
C499        C502   1.451       .  S
C500        C503   1.451       .  S
C501        N508   1.157       .  T
C502        N507   1.157       .  T
C503        N505   1.157       .  T
C504        N506   1.157       .  T
C509        C510   1.421       .  A
C509        C514   1.421       .  A
C510        C511   1.414       .  A
C510        C515   1.453       .  S
C511        C512   1.421       .  A
C511        C518   1.453       .  S
C512        C513   1.421       .  A
C513        C514   1.413       .  A
C513        C516   1.454       .  S
C514        C517   1.453       .  S
C515        N522   1.158       .  T
C516        N521   1.158       .  T
C517        N519   1.158       .  T
C518        N520   1.158       .  T
C523        C524   1.416       .  A
C523        C528   1.415       .  A
C524        C525   1.412       .  A
C524        C529   1.452       .  S
C525        C526   1.416       .  A
C525        C532   1.452       .  S
C526        C527   1.416       .  A
C527        C528   1.412       .  A
C527        C530   1.452       .  S
C528        C531   1.452       .  S
C529        N536   1.157       .  T
C530        N535   1.157       .  T
C531        N533   1.157       .  T
C532        N534   1.157       .  T
C537        C538   1.413       .  A
C537        C542   1.412       .  A
C538        C539   1.413       .  A
C538        C543   1.451       .  S
C539        C540   1.413       .  A
C539        C546   1.452       .  S
C540        C541   1.413       .  A
C541        C542   1.413       .  A
C541        C544   1.451       .  S
C542        C545   1.451       .  S
C543        N550   1.157       .  T
C544        N549   1.157       .  T
C545        N547   1.157       .  T
C546        N548   1.158       .  T
C551        C552   1.415       .  A
C551        C556   1.416       .  A
C552        C553   1.411       .  A
C552        C557   1.453       .  S
C553        C554   1.416       .  A
C553        C560   1.452       .  S
C554        C555   1.415       .  A
C555        C556   1.411       .  A
C555        C558   1.453       .  S
C556        C559   1.452       .  S
C557        N564   1.158       .  T
C558        N563   1.158       .  T
C559        N561   1.157       .  T
C560        N562   1.157       .  T
C565        C566   1.413       .  A
C565        C570   1.415       .  A
C566        C567   1.412       .  A
C566        C571   1.452       .  S
C567        C568   1.415       .  A
C567        C574   1.451       .  S
C568        C569   1.414       .  A
C569        C570   1.411       .  A
C569        C572   1.452       .  S
C570        C573   1.451       .  S
C571        N578   1.157       .  T
C572        N577   1.157       .  T
C573        N575   1.157       .  T
C574        N576   1.157       .  T
C579        C580   1.418       .  A
C579        C584   1.420       .  A
C580        C581   1.416       .  A
C580        C585   1.452       .  S
C581        C582   1.419       .  A
C581        C588   1.452       .  S
C582        C583   1.418       .  A
C583        C584   1.416       .  A
C583        C586   1.453       .  S
C584        C587   1.452       .  S
C585        N592   1.158       .  T
C586        N591   1.158       .  T
C587        N589   1.158       .  T
C588        N590   1.158       .  T
C593        C594   1.415       .  A
C593        C598   1.415       .  A
C594        C595   1.412       .  A
C594        C599   1.452       .  S
C595        C596   1.415       .  A
C595        C602   1.452       .  S
C596        C597   1.415       .  A
C597        C598   1.412       .  A
C597        C600   1.452       .  S
C598        C601   1.452       .  S
C599        N606   1.157       .  T
C600        N605   1.157       .  T
C601        N603   1.158       .  T
C602        N604   1.158       .  T
N607        N608   1.319       .  A
N607        N613   1.315       .  A
N607      Mn1040   2.194   1_565  S
N608        C615   1.352       .  A
N609        N611   1.316       .  A
N609        N610   1.320       .  A
N610        C616   1.353       .  A
N611        N612   1.320       .  A
N611      Mn1444   2.207       .  S
N612        C616   1.354       .  A
N613        N614   1.320       .  A
N614        C615   1.354       .  A
C615        C753   1.489       .  S
C616        C770   1.487       .  S
N617        N623   1.316       .  A
N617        N618   1.322       .  A
N617      Mn1455   2.209       .  S
N618        C626   1.353       .  A
N619        N620   1.321       .  A
N619        N621   1.315       .  A
N619       Mn625   2.205   1_565  S
N620        C627   1.354       .  A
N621        N622   1.320       .  A
N621      Mn1051   2.201   1_565  S
N622        C627   1.353       .  A
N623        N624   1.321       .  A
N624        C626   1.353       .  A
Mn625     Cl1053   2.549       .  S
C626        C739   1.486       .  S
C627        C795   1.490       .  S
N628        N629   1.319       .  A
N628        N634   1.313       .  A
N628       Mn636   2.198   1_455  S
N629        C637   1.355       .  A
N630        N632   1.315       .  A
N630        N631   1.321       .  A
N631        C638   1.355       .  A
N632        N633   1.323       .  A
N633        C638   1.357       .  A
N634        N635   1.319       .  A
N635        C637   1.355       .  A
Mn636      N1011   2.195       .  S
Mn636      N1419   2.207       .  S
C637        C711   1.507       .  S
C638        C781   1.506       .  S
N639        N640   1.320       .  A
N639        N645   1.315       .  A
N640        C650   1.355       .  A
N641        N642   1.321       .  A
N641        N643   1.317       .  A
N641       Mn648   2.210       .  S
N642        C651   1.353       .  A
N643        N644   1.321       .  A
N643       Mn647   2.206       .  S
N644        C651   1.353       .  A
N645        N646   1.319       .  A
N646        C650   1.353       .  A
Mn647      N1425   2.209   1_455  S
Mn647      N1025   2.199   1_455  S
Mn647      Cl649   2.552   1_455  S
Mn648      Cl649   2.547   1_455  S
Cl649     Mn1029   2.548       .  S
C650        C728   1.492       .  S
C651        C700   1.484       .  S
N652        N653   1.320       .  A
N652        N658   1.315       .  A
N652       Mn681   2.199       .  S
N653        C660   1.353       .  A
N654        N656   1.316       .  A
N654        N655   1.321       .  A
N654       Mn670   2.207       .  S
N655        C661   1.353       .  A
N656        N657   1.322       .  A
N656       Mn681   2.209       .  S
N657        C661   1.353       .  A
N658        N659   1.321       .  A
N658       Mn670   2.207       .  S
N659        C660   1.354       .  A
C660        C798   1.490       .  S
C661        C742   1.486       .  S
N662        N668   1.316       .  A
N662        N663   1.321       .  A
N662       Mn692   2.206       .  S
N663        C671   1.354       .  A
N664        N665   1.320       .  A
N664        N666   1.315       .  A
N664       Mn670   2.204       .  S
N665        C672   1.354       .  A
N666        N667   1.319       .  A
N666       Mn692   2.197       .  S
N667        C672   1.353       .  A
N668        N669   1.320       .  A
N668       Mn670   2.200       .  S
N669        C671   1.353       .  A
Mn670      Cl694   2.548       .  S
C671        C767   1.487       .  S
C672        C756   1.490       .  S
N673        N674   1.321       .  A
N673        N679   1.316       .  A
N673       Mn681   2.204       .  S
N674        C682   1.352       .  A
N675        N677   1.315       .  A
N675        N676   1.319       .  A
N675       Mn693   2.196       .  S
N676        C683   1.353       .  A
N677        N678   1.321       .  A
N677       Mn681   2.205       .  S
N678        C683   1.355       .  A
N679        N680   1.321       .  A
N679       Mn693   2.209       .  S
N680        C682   1.353       .  A
Mn681      Cl694   2.551       .  S
C682        C697   1.483       .  S
C683        C725   1.492       .  S
N684        N685   1.322       .  A
N684        N690   1.315       .  A
N684       Mn692   2.213       .  S
N685        C695   1.356       .  A
N686        N687   1.320       .  A
N686        N688   1.313       .  A
N686       Mn693   2.197       .  S
N687        C696   1.355       .  A
N688        N689   1.318       .  A
N688       Mn692   2.198       .  S
N689        C696   1.355       .  A
N690        N691   1.321       .  A
N690       Mn693   2.210       .  S
N691        C695   1.356       .  A
Mn692      Cl694   2.547       .  S
Mn693      Cl694   2.548       .  S
C695        C784   1.506       .  S
C696        C714   1.507       .  S
C697        C698   1.413       .  A
C697        C702   1.412       .  A
C698        C699   1.412       .  A
C698        C703   1.451       .  S
C699        C700   1.412       .  A
C699        C706   1.451       .  S
C700        C701   1.413       .  A
C701        C702   1.412       .  A
C701        C704   1.451       .  S
C702        C705   1.451       .  S
C703        N710   1.157       .  T
C704        N709   1.157       .  T
C705        N707   1.157       .  T
C706        N708   1.157       .  T
C711        C712   1.421       .  A
C711        C716   1.421       .  A
C712        C713   1.414       .  A
C712        C717   1.453       .  S
C713        C714   1.421       .  A
C713        C720   1.453       .  S
C714        C715   1.421       .  A
C715        C716   1.413       .  A
C715        C718   1.454       .  S
C716        C719   1.453       .  S
C717        N724   1.158       .  T
C718        N723   1.158       .  T
C719        N721   1.158       .  T
C720        N722   1.158       .  T
C725        C726   1.416       .  A
C725        C730   1.415       .  A
C726        C727   1.412       .  A
C726        C731   1.452       .  S
C727        C728   1.416       .  A
C727        C734   1.452       .  S
C728        C729   1.416       .  A
C729        C730   1.412       .  A
C729        C732   1.452       .  S
C730        C733   1.452       .  S
C731        N738   1.157       .  T
C732        N737   1.157       .  T
C733        N735   1.157       .  T
C734        N736   1.158       .  T
C739        C740   1.413       .  A
C739        C744   1.412       .  A
C740        C741   1.413       .  A
C740        C745   1.451       .  S
C741        C742   1.413       .  A
C741        C748   1.452       .  S
C742        C743   1.413       .  A
C743        C744   1.413       .  A
C743        C746   1.451       .  S
C744        C747   1.451       .  S
C745        N752   1.157       .  T
C746        N751   1.157       .  T
C747        N749   1.157       .  T
C748        N750   1.158       .  T
C753        C754   1.415       .  A
C753        C758   1.416       .  A
C754        C755   1.411       .  A
C754        C759   1.453       .  S
C755        C756   1.416       .  A
C755        C762   1.452       .  S
C756        C757   1.415       .  A
C757        C758   1.411       .  A
C757        C760   1.453       .  S
C758        C761   1.452       .  S
C759        N766   1.158       .  T
C760        N765   1.158       .  T
C761        N763   1.157       .  T
C762        N764   1.157       .  T
C767        C768   1.413       .  A
C767        C772   1.415       .  A
C768        C769   1.412       .  A
C768        C773   1.452       .  S
C769        C770   1.415       .  A
C769        C776   1.451       .  S
C770        C771   1.414       .  A
C771        C772   1.411       .  A
C771        C774   1.452       .  S
C772        C775   1.451       .  S
C773        N780   1.157       .  T
C774        N779   1.157       .  T
C775        N777   1.157       .  T
C776        N778   1.157       .  T
C781        C782   1.418       .  A
C781        C786   1.420       .  A
C782        C783   1.416       .  A
C782        C787   1.452       .  S
C783        C784   1.419       .  A
C783        C790   1.452       .  S
C784        C785   1.418       .  A
C785        C786   1.416       .  A
C785        C788   1.453       .  S
C786        C789   1.452       .  S
C787        N794   1.158       .  T
C788        N793   1.158       .  T
C789        N791   1.158       .  T
C790        N792   1.158       .  T
C795        C796   1.415       .  A
C795        C800   1.415       .  A
C796        C797   1.412       .  A
C796        C801   1.452       .  S
C797        C798   1.415       .  A
C797        C804   1.452       .  S
C798        C799   1.415       .  A
C799        C800   1.412       .  A
C799        C802   1.452       .  S
C800        C803   1.452       .  S
C801        N808   1.157       .  T
C802        N807   1.157       .  T
C803        N805   1.158       .  T
C804        N806   1.158       .  T
N809        N810   1.319       .  A
N809        N815   1.315       .  A
N810        C817   1.352       .  A
N811        N813   1.316       .  A
N811        N812   1.320       .  A
N811      Mn1433   2.200       .  S
N812        C818   1.353       .  A
N813        N814   1.320       .  A
N814        C818   1.354       .  A
N815        N816   1.320       .  A
N815      Mn1029   2.204       .  S
N816        C817   1.354       .  A
C817        C955   1.489       .  S
C818        C972   1.487       .  S
N819        N825   1.316       .  A
N819        N820   1.322       .  A
N820        C828   1.353       .  A
N821        N822   1.320       .  A
N821        N823   1.315       .  A
N821       Mn827   2.203       .  S
N822        C829   1.354       .  A
N823        N824   1.320       .  A
N824        C829   1.353       .  A
N825        N826   1.321       .  A
N825      Mn1231   2.209       .  S
N826        C828   1.353       .  A
Mn827      N1417   2.200   1_554  S
Mn827      N1017   2.204   1_554  S
Mn827      N1229   2.209       .  S
C828        C941   1.486       .  S
C829        C997   1.489       .  S
N830        N831   1.319       .  A
N830        N836   1.313       .  A
N830       Mn838   2.198       .  S
N831        C839   1.355       .  A
N832        N834   1.315       .  A
N832        N833   1.321       .  A
N832      Mn1456   2.209       .  S
N833        C840   1.356       .  A
N834        N835   1.323       .  A
N834      Mn1242   2.215       .  S
N835        C840   1.357       .  A
N836        N837   1.320       .  A
N836      Mn1052   2.200       .  S
N837        C839   1.356       .  A
Mn838      N1238   2.215   1_545  S
Mn838     Cl1053   2.548       .  S
C839        C913   1.508       .  S
C840        C983   1.507       .  S
N841        N842   1.320       .  A
N841        N847   1.315       .  A
N841      Mn1253   2.204       .  S
N842        C852   1.355       .  A
N843        N844   1.321       .  A
N843        N845   1.317       .  A
N843       Mn850   2.208       .  S
N844        C853   1.353       .  A
N845        N846   1.321       .  A
N845       Mn849   2.206       .  S
N846        C853   1.353       .  A
N847        N848   1.319       .  A
N847      Mn1254   2.195       .  S
N848        C852   1.352       .  A
Mn849      N1245   2.204   1_545  S
Mn849      Cl851   2.552       .  S
Mn850      N1438   2.209   1_544  S
Mn850      N1038   2.200   1_554  S
Mn850      N1251   2.194   1_545  S
Mn850      Cl851   2.547       .  S
Cl851     Mn1040   2.548   1_554  S
C852        C930   1.491       .  S
C853        C902   1.483       .  S
N854        N855   1.320       .  A
N854        N860   1.315       .  A
N854       Mn883   2.199       .  S
N855        C862   1.353       .  A
N856        N858   1.316       .  A
N856        N857   1.321       .  A
N856       Mn872   2.207       .  S
N857        C863   1.353       .  A
N858        N859   1.322       .  A
N858       Mn883   2.209       .  S
N859        C863   1.353       .  A
N860        N861   1.321       .  A
N860       Mn872   2.208       .  S
N861        C862   1.355       .  A
C862       C1000   1.490       .  S
C863        C944   1.486       .  S
N864        N870   1.316       .  A
N864        N865   1.321       .  A
N864       Mn894   2.206       .  S
N865        C873   1.354       .  A
N866        N867   1.320       .  A
N866        N868   1.315       .  A
N866       Mn872   2.204       .  S
N867        C874   1.354       .  A
N868        N869   1.319       .  A
N868       Mn894   2.196       .  S
N869        C874   1.352       .  A
N870        N871   1.320       .  A
N870       Mn872   2.200       .  S
N871        C873   1.353       .  A
Mn872      Cl896   2.548       .  S
C873        C969   1.486       .  S
C874        C958   1.489       .  S
N875        N876   1.321       .  A
N875        N881   1.316       .  A
N875       Mn883   2.203       .  S
N876        C884   1.352       .  A
N877        N879   1.315       .  A
N877        N878   1.319       .  A
N877       Mn895   2.194       .  S
N878        C885   1.352       .  A
N879        N880   1.320       .  A
N879       Mn883   2.205       .  S
N880        C885   1.355       .  A
N881        N882   1.321       .  A
N881       Mn895   2.207       .  S
N882        C884   1.353       .  A
Mn883      Cl896   2.551       .  S
C884        C899   1.482       .  S
C885        C927   1.491       .  S
N886        N887   1.322       .  A
N886        N892   1.315       .  A
N886       Mn894   2.214       .  S
N887        C897   1.357       .  A
N888        N889   1.320       .  A
N888        N890   1.312       .  A
N888       Mn895   2.198       .  S
N889        C898   1.355       .  A
N890        N891   1.318       .  A
N890       Mn894   2.198       .  S
N891        C898   1.355       .  A
N892        N893   1.321       .  A
N892       Mn895   2.210       .  S
N893        C897   1.356       .  A
Mn894      Cl896   2.546       .  S
Mn895      Cl896   2.548       .  S
C897        C986   1.507       .  S
C898        C916   1.508       .  S
C899        C900   1.412       .  A
C899        C904   1.412       .  A
C900        C901   1.411       .  A
C900        C905   1.451       .  S
C901        C902   1.412       .  A
C901        C908   1.451       .  S
C902        C903   1.413       .  A
C903        C904   1.412       .  A
C903        C906   1.451       .  S
C904        C907   1.451       .  S
C905        N912   1.157       .  T
C906        N911   1.157       .  T
C907        N909   1.157       .  T
C908        N910   1.157       .  T
C913        C914   1.421       .  A
C913        C918   1.420       .  A
C914        C915   1.414       .  A
C914        C919   1.453       .  S
C915        C916   1.421       .  A
C915        C922   1.453       .  S
C916        C917   1.421       .  A
C917        C918   1.414       .  A
C917        C920   1.454       .  S
C918        C921   1.453       .  S
C919        N926   1.158       .  T
C920        N925   1.158       .  T
C921        N923   1.158       .  T
C922        N924   1.158       .  T
C927        C928   1.416       .  A
C927        C932   1.415       .  A
C928        C929   1.412       .  A
C928        C933   1.452       .  S
C929        C930   1.415       .  A
C929        C936   1.452       .  S
C930        C931   1.416       .  A
C931        C932   1.411       .  A
C931        C934   1.452       .  S
C932        C935   1.452       .  S
C933        N940   1.157       .  T
C934        N939   1.157       .  T
C935        N937   1.157       .  T
C936        N938   1.158       .  T
C941        C942   1.413       .  A
C941        C946   1.412       .  A
C942        C943   1.413       .  A
C942        C947   1.451       .  S
C943        C944   1.413       .  A
C943        C950   1.452       .  S
C944        C945   1.413       .  A
C945        C946   1.412       .  A
C945        C948   1.451       .  S
C946        C949   1.452       .  S
C947        N954   1.157       .  T
C948        N953   1.157       .  T
C949        N951   1.157       .  T
C950        N952   1.158       .  T
C955        C956   1.415       .  A
C955        C960   1.416       .  A
C956        C957   1.411       .  A
C956        C961   1.453       .  S
C957        C958   1.416       .  A
C957        C964   1.452       .  S
C958        C959   1.415       .  A
C959        C960   1.411       .  A
C959        C962   1.453       .  S
C960        C963   1.452       .  S
C961        N968   1.158       .  T
C962        N967   1.158       .  T
C963        N965   1.157       .  T
C964        N966   1.157       .  T
C969        C970   1.413       .  A
C969        C974   1.414       .  A
C970        C971   1.412       .  A
C970        C975   1.452       .  S
C971        C972   1.415       .  A
C971        C978   1.451       .  S
C972        C973   1.413       .  A
C973        C974   1.411       .  A
C973        C976   1.452       .  S
C974        C977   1.451       .  S
C975        N982   1.158       .  T
C976        N981   1.157       .  T
C977        N979   1.157       .  T
C978        N980   1.157       .  T
C983        C984   1.418       .  A
C983        C988   1.420       .  A
C984        C985   1.417       .  A
C984        C989   1.453       .  S
C985        C986   1.420       .  A
C985        C992   1.452       .  S
C986        C987   1.418       .  A
C987        C988   1.416       .  A
C987        C990   1.453       .  S
C988        C991   1.452       .  S
C989        N996   1.158       .  T
C990        N995   1.158       .  T
C991        N993   1.158       .  T
C992        N994   1.158       .  T
C997        C998   1.415       .  A
C997       C1002   1.415       .  A
C998        C999   1.412       .  A
C998       C1003   1.452       .  S
C999       C1000   1.415       .  A
C999       C1006   1.452       .  S
C1000      C1001   1.415       .  A
C1001      C1002   1.412       .  A
C1001      C1004   1.452       .  S
C1002      C1005   1.452       .  S
C1003      N1010   1.157       .  T
C1004      N1009   1.157       .  T
C1005      N1007   1.158       .  T
C1006      N1008   1.158       .  T
N1011      N1012   1.319       .  A
N1011      N1017   1.315       .  A
N1012      C1019   1.352       .  A
N1013      N1015   1.316       .  A
N1013      N1014   1.320       .  A
N1013     Mn1231   2.200   1_556  S
N1014      C1020   1.353       .  A
N1015      N1016   1.320       .  A
N1016      C1020   1.354       .  A
N1017      N1018   1.320       .  A
N1018      C1019   1.354       .  A
C1019      C1157   1.489       .  S
C1020      C1174   1.487       .  S
N1021      N1027   1.316       .  A
N1021      N1022   1.322       .  A
N1022      C1030   1.353       .  A
N1023      N1024   1.320       .  A
N1023      N1025   1.315       .  A
N1023     Mn1029   2.203       .  S
N1024      C1031   1.354       .  A
N1025      N1026   1.320       .  A
N1026      C1031   1.353       .  A
N1027      N1028   1.321       .  A
N1027     Mn1433   2.209       .  S
N1028      C1030   1.353       .  A
Mn1029     N1215   2.200       .  S
Mn1029     N1431   2.209       .  S
C1030      C1143   1.486       .  S
C1031      C1199   1.489       .  S
N1032      N1033   1.319       .  A
N1032      N1038   1.313       .  A
N1032     Mn1040   2.198       .  S
N1033      C1041   1.355       .  A
N1034      N1036   1.315       .  A
N1034      N1035   1.321       .  A
N1034     Mn1254   2.209   1_556  S
N1035      C1042   1.356       .  A
N1036      N1037   1.323       .  A
N1036     Mn1444   2.215       .  S
N1037      C1042   1.357       .  A
N1038      N1039   1.320       .  A
N1039      C1041   1.356       .  A
Mn1040     N1440   2.215   1_545  S
C1041      C1115   1.508       .  S
C1042      C1185   1.507       .  S
N1043      N1044   1.320       .  A
N1043      N1049   1.315       .  A
N1043     Mn1455   2.204       .  S
N1044      C1054   1.355       .  A
N1045      N1046   1.321       .  A
N1045      N1047   1.317       .  A
N1045     Mn1052   2.208       .  S
N1046      C1055   1.353       .  A
N1047      N1048   1.321       .  A
N1047     Mn1051   2.206       .  S
N1048      C1055   1.353       .  A
N1049      N1050   1.319       .  A
N1049     Mn1456   2.195       .  S
N1050      C1054   1.352       .  A
Mn1051     N1447   2.204   1_545  S
Mn1051    Cl1053   2.552       .  S
Mn1052     N1236   2.209   1_545  S
Mn1052     N1453   2.194   1_545  S
Mn1052    Cl1053   2.547       .  S
C1054      C1132   1.491       .  S
C1055      C1104   1.483       .  S
N1056      N1057   1.320       .  A
N1056      N1062   1.315       .  A
N1056     Mn1085   2.199       .  S
N1057      C1064   1.353       .  A
N1058      N1060   1.316       .  A
N1058      N1059   1.321       .  A
N1058     Mn1074   2.207       .  S
N1059      C1065   1.353       .  A
N1060      N1061   1.322       .  A
N1060     Mn1085   2.209       .  S
N1061      C1065   1.353       .  A
N1062      N1063   1.321       .  A
N1062     Mn1074   2.208       .  S
N1063      C1064   1.355       .  A
C1064      C1202   1.490       .  S
C1065      C1146   1.486       .  S
N1066      N1072   1.316       .  A
N1066      N1067   1.321       .  A
N1066     Mn1096   2.206       .  S
N1067      C1075   1.354       .  A
N1068      N1069   1.320       .  A
N1068      N1070   1.315       .  A
N1068     Mn1074   2.204       .  S
N1069      C1076   1.354       .  A
N1070      N1071   1.319       .  A
N1070     Mn1096   2.196       .  S
N1071      C1076   1.352       .  A
N1072      N1073   1.320       .  A
N1072     Mn1074   2.200       .  S
N1073      C1075   1.353       .  A
Mn1074    Cl1098   2.548       .  S
C1075      C1171   1.486       .  S
C1076      C1160   1.489       .  S
N1077      N1078   1.321       .  A
N1077      N1083   1.316       .  A
N1077     Mn1085   2.203       .  S
N1078      C1086   1.352       .  A
N1079      N1081   1.315       .  A
N1079      N1080   1.319       .  A
N1079     Mn1097   2.194       .  S
N1080      C1087   1.352       .  A
N1081      N1082   1.320       .  A
N1081     Mn1085   2.205       .  S
N1082      C1087   1.355       .  A
N1083      N1084   1.321       .  A
N1083     Mn1097   2.207       .  S
N1084      C1086   1.353       .  A
Mn1085    Cl1098   2.551       .  S
C1086      C1101   1.482       .  S
C1087      C1129   1.491       .  S
N1088      N1089   1.322       .  A
N1088      N1094   1.315       .  A
N1088     Mn1096   2.214       .  S
N1089      C1099   1.357       .  A
N1090      N1091   1.320       .  A
N1090      N1092   1.312       .  A
N1090     Mn1097   2.198       .  S
N1091      C1100   1.356       .  A
N1092      N1093   1.318       .  A
N1092     Mn1096   2.198       .  S
N1093      C1100   1.355       .  A
N1094      N1095   1.321       .  A
N1094     Mn1097   2.210       .  S
N1095      C1099   1.356       .  A
Mn1096    Cl1098   2.546       .  S
Mn1097    Cl1098   2.548       .  S
C1099      C1188   1.507       .  S
C1100      C1118   1.508       .  S
C1101      C1102   1.412       .  A
C1101      C1106   1.412       .  A
C1102      C1103   1.411       .  A
C1102      C1107   1.451       .  S
C1103      C1104   1.412       .  A
C1103      C1110   1.451       .  S
C1104      C1105   1.413       .  A
C1105      C1106   1.412       .  A
C1105      C1108   1.451       .  S
C1106      C1109   1.451       .  S
C1107      N1114   1.157       .  T
C1108      N1113   1.157       .  T
C1109      N1111   1.157       .  T
C1110      N1112   1.157       .  T
C1115      C1116   1.421       .  A
C1115      C1120   1.420       .  A
C1116      C1117   1.414       .  A
C1116      C1121   1.453       .  S
C1117      C1118   1.421       .  A
C1117      C1124   1.453       .  S
C1118      C1119   1.421       .  A
C1119      C1120   1.414       .  A
C1119      C1122   1.454       .  S
C1120      C1123   1.453       .  S
C1121      N1128   1.158       .  T
C1122      N1127   1.158       .  T
C1123      N1125   1.158       .  T
C1124      N1126   1.158       .  T
C1129      C1130   1.416       .  A
C1129      C1134   1.415       .  A
C1130      C1131   1.412       .  A
C1130      C1135   1.452       .  S
C1131      C1132   1.415       .  A
C1131      C1138   1.452       .  S
C1132      C1133   1.416       .  A
C1133      C1134   1.411       .  A
C1133      C1136   1.452       .  S
C1134      C1137   1.452       .  S
C1135      N1142   1.157       .  T
C1136      N1141   1.157       .  T
C1137      N1139   1.157       .  T
C1138      N1140   1.157       .  T
C1143      C1144   1.413       .  A
C1143      C1148   1.412       .  A
C1144      C1145   1.413       .  A
C1144      C1149   1.451       .  S
C1145      C1146   1.413       .  A
C1145      C1152   1.452       .  S
C1146      C1147   1.413       .  A
C1147      C1148   1.412       .  A
C1147      C1150   1.451       .  S
C1148      C1151   1.451       .  S
C1149      N1156   1.157       .  T
C1150      N1155   1.157       .  T
C1151      N1153   1.157       .  T
C1152      N1154   1.158       .  T
C1157      C1158   1.415       .  A
C1157      C1162   1.416       .  A
C1158      C1159   1.411       .  A
C1158      C1163   1.453       .  S
C1159      C1160   1.416       .  A
C1159      C1166   1.452       .  S
C1160      C1161   1.415       .  A
C1161      C1162   1.411       .  A
C1161      C1164   1.453       .  S
C1162      C1165   1.452       .  S
C1163      N1170   1.158       .  T
C1164      N1169   1.158       .  T
C1165      N1167   1.157       .  T
C1166      N1168   1.157       .  T
C1171      C1172   1.413       .  A
C1171      C1176   1.414       .  A
C1172      C1173   1.412       .  A
C1172      C1177   1.452       .  S
C1173      C1174   1.415       .  A
C1173      C1180   1.451       .  S
C1174      C1175   1.413       .  A
C1175      C1176   1.411       .  A
C1175      C1178   1.452       .  S
C1176      C1179   1.451       .  S
C1177      N1184   1.158       .  T
C1178      N1183   1.157       .  T
C1179      N1181   1.157       .  T
C1180      N1182   1.157       .  T
C1185      C1186   1.418       .  A
C1185      C1190   1.420       .  A
C1186      C1187   1.417       .  A
C1186      C1191   1.453       .  S
C1187      C1188   1.420       .  A
C1187      C1194   1.452       .  S
C1188      C1189   1.418       .  A
C1189      C1190   1.417       .  A
C1189      C1192   1.453       .  S
C1190      C1193   1.452       .  S
C1191      N1198   1.158       .  T
C1192      N1197   1.158       .  T
C1193      N1195   1.158       .  T
C1194      N1196   1.158       .  T
C1199      C1200   1.415       .  A
C1199      C1204   1.415       .  A
C1200      C1201   1.412       .  A
C1200      C1205   1.452       .  S
C1201      C1202   1.415       .  A
C1201      C1208   1.452       .  S
C1202      C1203   1.415       .  A
C1203      C1204   1.412       .  A
C1203      C1206   1.452       .  S
C1204      C1207   1.452       .  S
C1205      N1212   1.157       .  T
C1206      N1211   1.157       .  T
C1207      N1209   1.158       .  T
C1208      N1210   1.158       .  T
N1213      N1214   1.319       .  A
N1213      N1219   1.315       .  A
N1214      C1221   1.352       .  A
N1215      N1217   1.316       .  A
N1215      N1216   1.320       .  A
N1216      C1222   1.353       .  A
N1217      N1218   1.320       .  A
N1218      C1222   1.354       .  A
N1219      N1220   1.320       .  A
N1219     Mn1433   2.204   1_565  S
N1220      C1221   1.354       .  A
C1221      C1359   1.489       .  S
C1222      C1376   1.487       .  S
N1223      N1229   1.316       .  A
N1223      N1224   1.322       .  A
N1224      C1232   1.353       .  A
N1225      N1226   1.320       .  A
N1225      N1227   1.315       .  A
N1225     Mn1231   2.203   1_565  S
N1226      C1233   1.354       .  A
N1227      N1228   1.320       .  A
N1228      C1233   1.353       .  A
N1229      N1230   1.321       .  A
N1230      C1232   1.353       .  A
Mn1231     N1421   2.204   1_544  S
C1232      C1345   1.486       .  S
C1233      C1401   1.489       .  S
N1234      N1235   1.319       .  A
N1234      N1240   1.313       .  A
N1234     Mn1242   2.198       .  S
N1235      C1243   1.355       .  A
N1236      N1238   1.315       .  A
N1236      N1237   1.321       .  A
N1237      C1244   1.356       .  A
N1238      N1239   1.323       .  A
N1239      C1244   1.357       .  A
N1240      N1241   1.320       .  A
N1240     Mn1456   2.200       .  S
N1241      C1243   1.356       .  A
Mn1242    Cl1457   2.548       .  S
C1243      C1317   1.508       .  S
C1244      C1387   1.507       .  S
N1245      N1246   1.320       .  A
N1245      N1251   1.315       .  A
N1246      C1256   1.355       .  A
N1247      N1248   1.321       .  A
N1247      N1249   1.317       .  A
N1247     Mn1254   2.208       .  S
N1248      C1257   1.353       .  A
N1249      N1250   1.321       .  A
N1249     Mn1253   2.206       .  S
N1250      C1257   1.353       .  A
N1251      N1252   1.319       .  A
N1252      C1256   1.352       .  A
Mn1253    Cl1255   2.552       .  S
Mn1254     N1442   2.200   1_554  S
Mn1254    Cl1255   2.547       .  S
Cl1255    Mn1444   2.548   1_554  S
C1256      C1334   1.491       .  S
C1257      C1306   1.483       .  S
N1258      N1259   1.320       .  A
N1258      N1264   1.315       .  A
N1258     Mn1287   2.199       .  S
N1259      C1266   1.353       .  A
N1260      N1262   1.316       .  A
N1260      N1261   1.321       .  A
N1260     Mn1276   2.206       .  S
N1261      C1267   1.353       .  A
N1262      N1263   1.322       .  A
N1262     Mn1287   2.209       .  S
N1263      C1267   1.353       .  A
N1264      N1265   1.321       .  A
N1264     Mn1276   2.208       .  S
N1265      C1266   1.355       .  A
C1266      C1404   1.490       .  S
C1267      C1348   1.486       .  S
N1268      N1274   1.316       .  A
N1268      N1269   1.320       .  A
N1268     Mn1298   2.206       .  S
N1269      C1277   1.354       .  A
N1270      N1271   1.320       .  A
N1270      N1272   1.315       .  A
N1270     Mn1276   2.203       .  S
N1271      C1278   1.354       .  A
N1272      N1273   1.319       .  A
N1272     Mn1298   2.196       .  S
N1273      C1278   1.353       .  A
N1274      N1275   1.320       .  A
N1274     Mn1276   2.200       .  S
N1275      C1277   1.353       .  A
Mn1276    Cl1300   2.548       .  S
C1277      C1373   1.486       .  S
C1278      C1362   1.489       .  S
N1279      N1280   1.321       .  A
N1279      N1285   1.316       .  A
N1279     Mn1287   2.203       .  S
N1280      C1288   1.352       .  A
N1281      N1283   1.315       .  A
N1281      N1282   1.319       .  A
N1281     Mn1299   2.194       .  S
N1282      C1289   1.352       .  A
N1283      N1284   1.320       .  A
N1283     Mn1287   2.205       .  S
N1284      C1289   1.355       .  A
N1285      N1286   1.321       .  A
N1285     Mn1299   2.207       .  S
N1286      C1288   1.353       .  A
Mn1287    Cl1300   2.551       .  S
C1288      C1303   1.482       .  S
C1289      C1331   1.491       .  S
N1290      N1291   1.322       .  A
N1290      N1296   1.315       .  A
N1290     Mn1298   2.213       .  S
N1291      C1301   1.357       .  A
N1292      N1293   1.320       .  A
N1292      N1294   1.312       .  A
N1292     Mn1299   2.198       .  S
N1293      C1302   1.356       .  A
N1294      N1295   1.318       .  A
N1294     Mn1298   2.198       .  S
N1295      C1302   1.355       .  A
N1296      N1297   1.321       .  A
N1296     Mn1299   2.210       .  S
N1297      C1301   1.356       .  A
Mn1298    Cl1300   2.546       .  S
Mn1299    Cl1300   2.548       .  S
C1301      C1390   1.507       .  S
C1302      C1320   1.508       .  S
C1303      C1304   1.412       .  A
C1303      C1308   1.412       .  A
C1304      C1305   1.411       .  A
C1304      C1309   1.451       .  S
C1305      C1306   1.412       .  A
C1305      C1312   1.451       .  S
C1306      C1307   1.413       .  A
C1307      C1308   1.412       .  A
C1307      C1310   1.451       .  S
C1308      C1311   1.451       .  S
C1309      N1316   1.157       .  T
C1310      N1315   1.157       .  T
C1311      N1313   1.157       .  T
C1312      N1314   1.157       .  T
C1317      C1318   1.421       .  A
C1317      C1322   1.420       .  A
C1318      C1319   1.414       .  A
C1318      C1323   1.453       .  S
C1319      C1320   1.421       .  A
C1319      C1326   1.453       .  S
C1320      C1321   1.421       .  A
C1321      C1322   1.414       .  A
C1321      C1324   1.454       .  S
C1322      C1325   1.453       .  S
C1323      N1330   1.158       .  T
C1324      N1329   1.158       .  T
C1325      N1327   1.158       .  T
C1326      N1328   1.158       .  T
C1331      C1332   1.416       .  A
C1331      C1336   1.415       .  A
C1332      C1333   1.412       .  A
C1332      C1337   1.452       .  S
C1333      C1334   1.415       .  A
C1333      C1340   1.452       .  S
C1334      C1335   1.416       .  A
C1335      C1336   1.411       .  A
C1335      C1338   1.452       .  S
C1336      C1339   1.452       .  S
C1337      N1344   1.157       .  T
C1338      N1343   1.157       .  T
C1339      N1341   1.157       .  T
C1340      N1342   1.158       .  T
C1345      C1346   1.413       .  A
C1345      C1350   1.412       .  A
C1346      C1347   1.413       .  A
C1346      C1351   1.451       .  S
C1347      C1348   1.413       .  A
C1347      C1354   1.452       .  S
C1348      C1349   1.413       .  A
C1349      C1350   1.412       .  A
C1349      C1352   1.451       .  S
C1350      C1353   1.451       .  S
C1351      N1358   1.157       .  T
C1352      N1357   1.157       .  T
C1353      N1355   1.157       .  T
C1354      N1356   1.158       .  T
C1359      C1360   1.415       .  A
C1359      C1364   1.416       .  A
C1360      C1361   1.411       .  A
C1360      C1365   1.453       .  S
C1361      C1362   1.416       .  A
C1361      C1368   1.452       .  S
C1362      C1363   1.415       .  A
C1363      C1364   1.411       .  A
C1363      C1366   1.453       .  S
C1364      C1367   1.452       .  S
C1365      N1372   1.158       .  T
C1366      N1371   1.158       .  T
C1367      N1369   1.157       .  T
C1368      N1370   1.157       .  T
C1373      C1374   1.413       .  A
C1373      C1378   1.414       .  A
C1374      C1375   1.412       .  A
C1374      C1379   1.452       .  S
C1375      C1376   1.415       .  A
C1375      C1382   1.451       .  S
C1376      C1377   1.414       .  A
C1377      C1378   1.411       .  A
C1377      C1380   1.452       .  S
C1378      C1381   1.451       .  S
C1379      N1386   1.158       .  T
C1380      N1385   1.157       .  T
C1381      N1383   1.157       .  T
C1382      N1384   1.157       .  T
C1387      C1388   1.418       .  A
C1387      C1392   1.420       .  A
C1388      C1389   1.417       .  A
C1388      C1393   1.452       .  S
C1389      C1390   1.420       .  A
C1389      C1396   1.452       .  S
C1390      C1391   1.418       .  A
C1391      C1392   1.417       .  A
C1391      C1394   1.453       .  S
C1392      C1395   1.452       .  S
C1393      N1400   1.158       .  T
C1394      N1399   1.158       .  T
C1395      N1397   1.158       .  T
C1396      N1398   1.158       .  T
C1401      C1402   1.415       .  A
C1401      C1406   1.415       .  A
C1402      C1403   1.412       .  A
C1402      C1407   1.452       .  S
C1403      C1404   1.415       .  A
C1403      C1410   1.452       .  S
C1404      C1405   1.415       .  A
C1405      C1406   1.412       .  A
C1405      C1408   1.452       .  S
C1406      C1409   1.452       .  S
C1407      N1414   1.157       .  T
C1408      N1413   1.157       .  T
C1409      N1411   1.158       .  T
C1410      N1412   1.158       .  T
N1415      N1416   1.319       .  A
N1415      N1421   1.315       .  A
N1416      C1423   1.352       .  A
N1417      N1419   1.316       .  A
N1417      N1418   1.320       .  A
N1418      C1424   1.353       .  A
N1419      N1420   1.320       .  A
N1420      C1424   1.354       .  A
N1421      N1422   1.320       .  A
N1422      C1423   1.354       .  A
C1423      C1561   1.489       .  S
C1424      C1578   1.487       .  S
N1425      N1431   1.316       .  A
N1425      N1426   1.322       .  A
N1426      C1434   1.353       .  A
N1427      N1428   1.320       .  A
N1427      N1429   1.315       .  A
N1427     Mn1433   2.203   1_565  S
N1428      C1435   1.354       .  A
N1429      N1430   1.320       .  A
N1430      C1435   1.353       .  A
N1431      N1432   1.321       .  A
N1432      C1434   1.353       .  A
C1434      C1547   1.486       .  S
C1435      C1603   1.489       .  S
N1436      N1437   1.319       .  A
N1436      N1442   1.313       .  A
N1436     Mn1444   2.198       .  S
N1437      C1445   1.355       .  A
N1438      N1440   1.315       .  A
N1438      N1439   1.321       .  A
N1439      C1446   1.356       .  A
N1440      N1441   1.323       .  A
N1441      C1446   1.357       .  A
N1442      N1443   1.320       .  A
N1443      C1445   1.356       .  A
C1445      C1519   1.508       .  S
C1446      C1589   1.507       .  S
N1447      N1448   1.320       .  A
N1447      N1453   1.315       .  A
N1448      C1458   1.355       .  A
N1449      N1450   1.321       .  A
N1449      N1451   1.317       .  A
N1449     Mn1456   2.208       .  S
N1450      C1459   1.353       .  A
N1451      N1452   1.321       .  A
N1451     Mn1455   2.206       .  S
N1452      C1459   1.353       .  A
N1453      N1454   1.319       .  A
N1454      C1458   1.352       .  A
Mn1455    Cl1457   2.552       .  S
Mn1456    Cl1457   2.547       .  S
C1458      C1536   1.491       .  S
C1459      C1508   1.483       .  S
N1460      N1461   1.320       .  A
N1460      N1466   1.315       .  A
N1460     Mn1489   2.199       .  S
N1461      C1468   1.353       .  A
N1462      N1464   1.316       .  A
N1462      N1463   1.321       .  A
N1462     Mn1478   2.207       .  S
N1463      C1469   1.353       .  A
N1464      N1465   1.322       .  A
N1464     Mn1489   2.209       .  S
N1465      C1469   1.353       .  A
N1466      N1467   1.321       .  A
N1466     Mn1478   2.208       .  S
N1467      C1468   1.355       .  A
C1468      C1606   1.490       .  S
C1469      C1550   1.486       .  S
N1470      N1476   1.316       .  A
N1470      N1471   1.320       .  A
N1470     Mn1500   2.206       .  S
N1471      C1479   1.354       .  A
N1472      N1473   1.320       .  A
N1472      N1474   1.315       .  A
N1472     Mn1478   2.203       .  S
N1473      C1480   1.354       .  A
N1474      N1475   1.319       .  A
N1474     Mn1500   2.196       .  S
N1475      C1480   1.353       .  A
N1476      N1477   1.320       .  A
N1476     Mn1478   2.200       .  S
N1477      C1479   1.353       .  A
Mn1478    Cl1502   2.548       .  S
C1479      C1575   1.486       .  S
C1480      C1564   1.489       .  S
N1481      N1482   1.321       .  A
N1481      N1487   1.316       .  A
N1481     Mn1489   2.203       .  S
N1482      C1490   1.352       .  A
N1483      N1485   1.315       .  A
N1483      N1484   1.319       .  A
N1483     Mn1501   2.194       .  S
N1484      C1491   1.352       .  A
N1485      N1486   1.320       .  A
N1485     Mn1489   2.205       .  S
N1486      C1491   1.355       .  A
N1487      N1488   1.321       .  A
N1487     Mn1501   2.207       .  S
N1488      C1490   1.353       .  A
Mn1489    Cl1502   2.551       .  S
C1490      C1505   1.482       .  S
C1491      C1533   1.491       .  S
N1492      N1493   1.322       .  A
N1492      N1498   1.315       .  A
N1492     Mn1500   2.213       .  S
N1493      C1503   1.357       .  A
N1494      N1495   1.320       .  A
N1494      N1496   1.312       .  A
N1494     Mn1501   2.198       .  S
N1495      C1504   1.356       .  A
N1496      N1497   1.318       .  A
N1496     Mn1500   2.198       .  S
N1497      C1504   1.355       .  A
N1498      N1499   1.321       .  A
N1498     Mn1501   2.210       .  S
N1499      C1503   1.356       .  A
Mn1500    Cl1502   2.546       .  S
Mn1501    Cl1502   2.548       .  S
C1503      C1592   1.507       .  S
C1504      C1522   1.508       .  S
C1505      C1506   1.412       .  A
C1505      C1510   1.412       .  A
C1506      C1507   1.411       .  A
C1506      C1511   1.451       .  S
C1507      C1508   1.412       .  A
C1507      C1514   1.451       .  S
C1508      C1509   1.413       .  A
C1509      C1510   1.412       .  A
C1509      C1512   1.451       .  S
C1510      C1513   1.451       .  S
C1511      N1518   1.157       .  T
C1512      N1517   1.157       .  T
C1513      N1515   1.157       .  T
C1514      N1516   1.157       .  T
C1519      C1520   1.421       .  A
C1519      C1524   1.420       .  A
C1520      C1521   1.414       .  A
C1520      C1525   1.453       .  S
C1521      C1522   1.421       .  A
C1521      C1528   1.453       .  S
C1522      C1523   1.421       .  A
C1523      C1524   1.414       .  A
C1523      C1526   1.454       .  S
C1524      C1527   1.453       .  S
C1525      N1532   1.158       .  T
C1526      N1531   1.158       .  T
C1527      N1529   1.158       .  T
C1528      N1530   1.158       .  T
C1533      C1534   1.416       .  A
C1533      C1538   1.415       .  A
C1534      C1535   1.412       .  A
C1534      C1539   1.452       .  S
C1535      C1536   1.415       .  A
C1535      C1542   1.452       .  S
C1536      C1537   1.416       .  A
C1537      C1538   1.411       .  A
C1537      C1540   1.452       .  S
C1538      C1541   1.452       .  S
C1539      N1546   1.157       .  T
C1540      N1545   1.157       .  T
C1541      N1543   1.157       .  T
C1542      N1544   1.158       .  T
C1547      C1548   1.413       .  A
C1547      C1552   1.412       .  A
C1548      C1549   1.413       .  A
C1548      C1553   1.451       .  S
C1549      C1550   1.413       .  A
C1549      C1556   1.452       .  S
C1550      C1551   1.413       .  A
C1551      C1552   1.412       .  A
C1551      C1554   1.451       .  S
C1552      C1555   1.451       .  S
C1553      N1560   1.157       .  T
C1554      N1559   1.157       .  T
C1555      N1557   1.157       .  T
C1556      N1558   1.158       .  T
C1561      C1562   1.415       .  A
C1561      C1566   1.416       .  A
C1562      C1563   1.411       .  A
C1562      C1567   1.453       .  S
C1563      C1564   1.416       .  A
C1563      C1570   1.452       .  S
C1564      C1565   1.415       .  A
C1565      C1566   1.411       .  A
C1565      C1568   1.453       .  S
C1566      C1569   1.452       .  S
C1567      N1574   1.158       .  T
C1568      N1573   1.158       .  T
C1569      N1571   1.157       .  T
C1570      N1572   1.157       .  T
C1575      C1576   1.413       .  A
C1575      C1580   1.414       .  A
C1576      C1577   1.412       .  A
C1576      C1581   1.452       .  S
C1577      C1578   1.415       .  A
C1577      C1584   1.451       .  S
C1578      C1579   1.414       .  A
C1579      C1580   1.411       .  A
C1579      C1582   1.452       .  S
C1580      C1583   1.451       .  S
C1581      N1588   1.158       .  T
C1582      N1587   1.157       .  T
C1583      N1585   1.157       .  T
C1584      N1586   1.157       .  T
C1589      C1590   1.418       .  A
C1589      C1594   1.420       .  A
C1590      C1591   1.417       .  A
C1590      C1595   1.452       .  S
C1591      C1592   1.420       .  A
C1591      C1598   1.452       .  S
C1592      C1593   1.418       .  A
C1593      C1594   1.417       .  A
C1593      C1596   1.453       .  S
C1594      C1597   1.452       .  S
C1595      N1602   1.158       .  T
C1596      N1601   1.158       .  T
C1597      N1599   1.158       .  T
C1598      N1600   1.158       .  T
C1603      C1604   1.415       .  A
C1603      C1608   1.415       .  A
C1604      C1605   1.412       .  A
C1604      C1609   1.452       .  S
C1605      C1606   1.415       .  A
C1605      C1612   1.452       .  S
C1606      C1607   1.415       .  A
C1607      C1608   1.412       .  A
C1607      C1610   1.452       .  S
C1608      C1611   1.452       .  S
C1609      N1616   1.157       .  T
C1610      N1615   1.157       .  T
C1611      N1613   1.158       .  T
C1612      N1614   1.158       .  T
