geometry optimzed in LAMMPS
_audit_creation_date              2020-11-30 
_audit_creation_method            'lammps2cif' 
_symmetry_space_group_name_H-M    'P1' 
_symmetry_Int_Tables_number       1 
_symmetry_cell_setting            triclinic 
loop_ 
_symmetry_equiv_pos_as_xyz 
  x,y,z 
_cell_length_a                    75.47406935481335 
_cell_length_b                    49.303348910210126 
_cell_length_c                    30.728556707035487 
_cell_angle_alpha                 89.87906568260367 
_cell_angle_beta                  89.98350876831205 
_cell_angle_gamma                 90.6175803616543 
loop_ 
_atom_site_label 
_atom_site_type_symbol 
_atom_site_fract_x 
_atom_site_fract_y 
_atom_site_fract_z 
_atom_site_charge 
N1          N  0.83821181  0.45001513  0.56127483    -0.26840
N2          N  0.84593127  0.46349124  0.59333994    -0.34700
C3          C  0.86332628  0.45796907  0.59347656     0.01500
C4          C  0.86667913  0.43967505  0.56057819     0.07520
C5          C  0.85050137  0.43521244  0.54049175    -0.05580
H6          H  0.87295711  0.46745957  0.61477629     0.08190
H7          H  0.84807432  0.42358239  0.51124390     0.09390
Cu8        Cu  0.83267147  0.48998588  0.63390869     0.44170
Cu9        Cu  0.81176437  0.45545540  0.54505565     0.41990
Cu10       Cu  0.78528209  0.49423732  0.62325429     0.43880
N11         N  0.81701445  0.51404195  0.67319840    -0.34230
N12         N  0.79955528  0.51506731  0.67049522    -0.28480
C13         C  0.79351419  0.53253172  0.70059594    -0.04580
C14         C  0.80792547  0.54306246  0.72299499     0.07630
C15         C  0.82257518  0.53089627  0.70476128     0.01430
H16         H  0.77973399  0.53765839  0.70506121     0.09080
H17         H  0.83630278  0.53406970  0.71366339     0.08160
N18         N  0.77540785  0.47727201  0.56634300    -0.35680
N19         N  0.78520555  0.46488684  0.53683572    -0.27860
C20         C  0.77518652  0.45973707  0.50153457    -0.03100
C21         C  0.75825978  0.46874373  0.50972459     0.05510
C22         C  0.75880475  0.47965007  0.55102622     0.03600
H23         H  0.77989351  0.45020107  0.47210710     0.08710
H24         H  0.74817001  0.48980788  0.56781946     0.07540
N25         N  0.96735295  0.44862766  0.43992374    -0.26840
N26         N  0.95547546  0.46628226  0.45294997    -0.34700
C27         C  0.96075842  0.49131632  0.44089777     0.01500
C28         C  0.97679722  0.48915626  0.41933337     0.07520
C29         C  0.98053374  0.46177901  0.41921634    -0.05580
H30         H  0.95374197  0.50974889  0.44844750     0.08190
H31         H  0.99221418  0.45218817  0.40620135     0.09390
Cu32       Cu  0.93330062  0.45451490  0.48777376     0.44170
Cu33       Cu  0.96602755  0.40822827  0.45610561     0.41990
Cu34       Cu  0.92923962  0.38270545  0.52075970     0.43880
N35         N  0.91117288  0.43740318  0.51678924    -0.34230
N36         N  0.90907599  0.41147661  0.52721627    -0.28480
C37         C  0.89260625  0.40789315  0.54360730    -0.04580
C38         C  0.88423984  0.43277829  0.54369676     0.07630
C39         C  0.89639169  0.45092586  0.52677556     0.01430
H40         H  0.88731423  0.38881321  0.55561820     0.09080
H41         H  0.89460957  0.47247483  0.52185959     0.08160
N42         N  0.95287827  0.36142716  0.51102312    -0.35680
N43         N  0.96595510  0.37114367  0.48668527    -0.27860
C44         C  0.97979884  0.35434132  0.48846100    -0.03100
C45         C  0.97535332  0.33287888  0.51509090     0.05510
C46         C  0.95817718  0.33781526  0.52891187     0.03600
H47         H  0.99239109  0.35793828  0.47253691     0.08710
H48         H  0.95035973  0.32560107  0.55119072     0.07540
N49         N  0.21312570  0.62616603  0.28468869    -0.26840
N50         N  0.22372140  0.61472788  0.25583569    -0.34700
C51         C  0.24012166  0.61319843  0.27259976     0.01500
C52         C  0.23977271  0.62359681  0.31419615     0.07520
C53         C  0.22248951  0.63152461  0.32105813    -0.05580
H54         H  0.25132060  0.60420810  0.25628874     0.08190
H55         H  0.21715665  0.64075273  0.35008454     0.09390
Cu56       Cu  0.21562039  0.59813653  0.19709461     0.44170
Cu57       Cu  0.18647784  0.63452872  0.27350358     0.41990
Cu58       Cu  0.16899870  0.59975280  0.17992042     0.43880
N59         N  0.20329872  0.57711729  0.14702011    -0.34230
N60         N  0.18593257  0.57723440  0.14176476    -0.28480
C61         C  0.18154073  0.56056999  0.10890767    -0.04580
C62         C  0.19689615  0.54944756  0.09253610     0.07630
C63         C  0.21048615  0.56040609  0.11737235     0.01430
H64         H  0.16812714  0.55674216  0.09798049     0.09080
H65         H  0.22446416  0.55604413  0.11487559     0.08160
N66         N  0.15401572  0.62465537  0.21918196    -0.35680
N67         N  0.16031329  0.63835964  0.25282462    -0.27860
C68         C  0.14688358  0.65185072  0.27171880    -0.03100
C69         C  0.13147299  0.64605173  0.24887581     0.05510
C70         C  0.13649649  0.62859510  0.21617870     0.03600
H71         H  0.14800345  0.66328746  0.30161099     0.08710
H72         H  0.12789677  0.61854102  0.19297645     0.07540
N73         N  0.08785472  0.66969052  0.28296494    -0.26840
N74         N  0.08524995  0.64312565  0.28020860    -0.34700
C75         C  0.10024201  0.63128361  0.26718551     0.01500
C76         C  0.11311431  0.65101612  0.26228962     0.07520
C77         C  0.10493285  0.67521549  0.27265842    -0.05580
H78         H  0.10182974  0.60963331  0.26316625     0.08190
H79         H  0.11088069  0.69528627  0.27238013     0.09390
Cu80       Cu  0.06284537  0.62201583  0.29966362     0.44170
Cu81       Cu  0.06789083  0.69686741  0.30113546     0.41990
Cu82       Cu  0.03555609  0.66108322  0.36636374     0.43880
N83         N  0.04159781  0.60523315  0.33271903    -0.34230
N84         N  0.03154614  0.62013658  0.35815981    -0.28480
C85         C  0.01863881  0.60455195  0.37528826    -0.04580
C86         C  0.02083176  0.57848153  0.36023633     0.07630
C87         C  0.03556594  0.57945588  0.33348260     0.01430
H88         H  0.00850509  0.61162690  0.39728527     0.09080
H89         H  0.04143522  0.56277246  0.31600482     0.08160
N90         N  0.03515200  0.70218564  0.35587588    -0.35680
N91         N  0.04557670  0.71544655  0.32845979    -0.27860
C92         C  0.03899548  0.74060579  0.32278551    -0.03100
C93         C  0.02378956  0.74315944  0.34834034     0.05510
C94         C  0.02215698  0.71841029  0.36926869     0.03600
H95         H  0.04453583  0.75550463  0.30063751     0.08710
H96         H  0.01185700  0.71211057  0.39167497     0.07540
N97         N  0.21298191  0.12128595  0.60302988    -0.26840
N98         N  0.22309184  0.10796063  0.63085431    -0.34700
C99         C  0.23942860  0.10566660  0.61390880     0.01500
C100        C  0.23946298  0.11763340  0.57330619     0.07520
C101        C  0.22253147  0.12720484  0.56719621    -0.05580
H102        H  0.25026251  0.09512364  0.62928906     0.08190
H103        H  0.21753483  0.13778866  0.53896046     0.09390
Cu104      Cu  0.21410876  0.09019795  0.68808387     0.44170
Cu105      Cu  0.18669708  0.13112143  0.61434057     0.41990
Cu106      Cu  0.16733504  0.09525814  0.70474549     0.43880
N107        N  0.20078384  0.06926584  0.73690518    -0.34230
N108        N  0.18344082  0.07068336  0.74211661    -0.28480
C109        C  0.17848367  0.05405305  0.77471642    -0.04580
C110        C  0.19343843  0.04161019  0.79092445     0.07630
C111        C  0.20737114  0.05173632  0.76625464     0.01430
H112        H  0.16498133  0.05131338  0.78581643     0.09080
H113        H  0.22120801  0.04649705  0.76897564     0.08160
N114        N  0.15343652  0.12191737  0.66566904    -0.35680
N115        N  0.16051030  0.13593930  0.63320916    -0.27860
C116        C  0.14767123  0.15017526  0.61328380    -0.03100
C117        C  0.13179223  0.14458027  0.63416903     0.05510
C118        C  0.13594888  0.12645986  0.66687595     0.03600
H119        H  0.14949211  0.16177774  0.58367416     0.08710
H120        H  0.12675801  0.11615251  0.68847257     0.07540
N121        N  0.02481317  0.11935922  0.56553060    -0.26840
N122        N  0.03900810  0.10417889  0.56895375    -0.34700
C123        C  0.03480083  0.07853754  0.55792367     0.01500
C124        C  0.01706500  0.07784845  0.54668512     0.07520
C125        C  0.01112698  0.10404042  0.55176525    -0.05580
H126        H  0.04401234  0.06187932  0.55708747     0.08190
H127        H  0.99794594  0.11146467  0.54536302     0.09390
Cu128      Cu  0.06307551  0.12117504  0.58539987     0.44170
Cu129      Cu  0.02587877  0.16037550  0.57682696     0.41990
Cu130      Cu  0.06840415  0.19640204  0.58270387     0.43880
N131        N  0.08606621  0.14218828  0.59940179    -0.34230
N132        N  0.08874004  0.16875767  0.59679389    -0.28480
C133        C  0.10579621  0.17408163  0.60760826    -0.04580
C134        C  0.11383761  0.14973392  0.61804980     0.07630
C135        C  0.10094793  0.13015908  0.61261898     0.01430
H136        H  0.11167893  0.19416480  0.60937468     0.09080
H137        H  0.10227020  0.10855100  0.61785103     0.08160
N138        N  0.04381773  0.21561477  0.57442277    -0.35680
N139        N  0.02869137  0.20181686  0.57518262    -0.27860
C140        C  0.01519002  0.21860061  0.56803555    -0.03100
C141        C  0.02185140  0.24440035  0.56143826     0.05510
C142        C  0.04012878  0.24193724  0.56616946     0.03600
H143        H  0.00149013  0.21212771  0.56548662     0.08710
H144        H  0.05000141  0.25780368  0.56200634     0.07540
N145        N  0.78477674  0.95901294  0.35741642    -0.26840
N146        N  0.77503960  0.96906430  0.32554474    -0.34700
C147        C  0.75839236  0.97241382  0.34001507     0.01500
C148        C  0.75781128  0.96461865  0.38316237     0.07520
C149        C  0.77471577  0.95637367  0.39329714    -0.05580
H150        H  0.74780163  0.98135055  0.32130805     0.08190
H151        H  0.77940651  0.94919341  0.42446889     0.09390
Cu152      Cu  0.78532183  0.98248013  0.26668049     0.44170
Cu153      Cu  0.81133912  0.94976480  0.35176383     0.41990
Cu154      Cu  0.83296520  0.97762364  0.25812100     0.43880
N155        N  0.80012161  0.00215338  0.21910057    -0.34230
N156        N  0.81759306  0.00093994  0.21708764    -0.28480
C157        C  0.82346502  0.01800519  0.18604162    -0.04580
C158        C  0.80900802  0.03052226  0.16751481     0.07630
C159        C  0.79439059  0.01994715  0.18907203     0.01430
H160        H  0.83728401  0.02143197  0.17822936     0.09080
H161        H  0.78070200  0.02560600  0.18461882     0.08160
N162        N  0.84578120  0.95385989  0.30359688    -0.35680
N163        N  0.83777552  0.94328090  0.33800553    -0.27860
C164        C  0.84979498  0.93031962  0.36252103    -0.03100
C165        C  0.86607493  0.93275833  0.34227202     0.05510
C166        C  0.86312528  0.94808315  0.30537798     0.03600
H167        H  0.84708151  0.92124573  0.39393515     0.08710
H168        H  0.87298304  0.95563070  0.28270549     0.07540
N169        N  0.96569211  0.86815439  0.42143612    -0.26840
N170        N  0.95306043  0.85952884  0.39491085    -0.34700
C171        C  0.95862788  0.83691459  0.37477760     0.01500
C172        C  0.97557573  0.83105145  0.38940506     0.07520
C173        C  0.97947554  0.85121639  0.41927407    -0.05580
H174        H  0.95118331  0.82619584  0.35001764     0.08190
H175        H  0.99172449  0.85399949  0.43703661     0.09390
Cu176      Cu  0.92952132  0.88040006  0.38491878     0.44170
Cu177      Cu  0.96544996  0.90495851  0.45348589     0.41990
Cu178      Cu  0.93046671  0.94984059  0.42554457     0.43880
N179        N  0.90854860  0.90732187  0.37893859    -0.34230
N180        N  0.90922282  0.93260716  0.39328164    -0.28480
C181        C  0.89409722  0.94515394  0.38297503    -0.04580
C182        C  0.88333239  0.92690645  0.36145214     0.07630
C183        C  0.89280718  0.90311018  0.35925305     0.01430
H184        H  0.89125351  0.96614622  0.39018349     0.09080
H185        H  0.88876183  0.88438440  0.34366136     0.08160
N186        N  0.95301018  0.96244350  0.45787414    -0.35680
N187        N  0.96576277  0.94570055  0.46914427    -0.27860
C188        C  0.97901539  0.95998645  0.48758901    -0.03100
C189        C  0.97434982  0.98702879  0.48782296     0.05510
C190        C  0.95776186  0.98787097  0.46881411     0.03600
H191        H  0.99141439  0.95148070  0.49840196     0.08710
H192        H  0.94989816  0.00568396  0.46254685     0.07540
N193        N  0.79076869  0.13071261  0.94619931    -0.26840
N194        N  0.78044276  0.11823373  0.97498189    -0.34700
C195        C  0.76406460  0.11563664  0.95830755     0.01500
C196        C  0.76420037  0.12641070  0.91687535     0.07520
C197        C  0.78129100  0.13569064  0.91000275    -0.05580
H198        H  0.75305766  0.10563991  0.97450492     0.08190
H199        H  0.78642794  0.14553725  0.88107650     0.09390
Cu200      Cu  0.78890782  0.10151220  0.03323726     0.44170
Cu201      Cu  0.81720756  0.14087971  0.95663248     0.41990
Cu202      Cu  0.83503386  0.10875665  0.05167900     0.43880
N203        N  0.80187608  0.08067192  0.08219584    -0.34230
N204        N  0.81915587  0.08302186  0.08798223    -0.28480
C205        C  0.82424951  0.06571822  0.11923158    -0.04580
C206        C  0.80942721  0.05184494  0.13403555     0.07630
C207        C  0.79541922  0.06185623  0.10998797     0.01430
H208        H  0.83777826  0.06328661  0.13002756     0.09080
H209        H  0.78169042  0.05540755  0.11162674     0.08160
N210        N  0.84967717  0.13355734  0.01086269    -0.35680
N211        N  0.84337154  0.14591786  0.97605215    -0.27860
C212        C  0.85690063  0.15816259  0.95471973    -0.03100
C213        C  0.87238275  0.15280614  0.97716713     0.05510
C214        C  0.86726957  0.13721192  0.01243117     0.03600
H215        H  0.85576414  0.16801964  0.92338677     0.08710
H216        H  0.87585545  0.12769989  0.03601528     0.07540
N217        N  0.98080066  0.13373058  0.98999180    -0.26840
N218        N  0.96736548  0.11690880  0.98361033    -0.34700
C219        C  0.97187091  0.09190214  0.99651887     0.01500
C220        C  0.98903173  0.09296372  0.01235127     0.07520
C221        C  0.99428232  0.11990577  0.00768319    -0.05580
H222        H  0.96325761  0.07426912  0.99442646     0.08190
H223        H  0.00696022  0.12879011  0.01631810     0.09390
Cu224      Cu  0.94330173  0.12988585  0.96120005     0.44170
Cu225      Cu  0.97972411  0.17390316  0.97016850     0.41990
Cu226      Cu  0.93767787  0.19846915  0.92233839     0.43880
N227        N  0.91916505  0.14813906  0.95431740    -0.34230
N228        N  0.91651759  0.17305649  0.93991478    -0.28480
C229        C  0.89908679  0.17862023  0.94370863    -0.04580
C230        C  0.89071712  0.15617739  0.96210456     0.07630
C231        C  0.90384123  0.13742786  0.96834186     0.01430
H232        H  0.89318934  0.19798575  0.93619472     0.09080
H233        H  0.90249078  0.11764858  0.98341187     0.08160
N234        N  0.96238543  0.21755269  0.91493984    -0.35680
N235        N  0.97709679  0.20920213  0.93396126    -0.27860
C236        C  0.99055549  0.22578699  0.92260726    -0.03100
C237        C  0.98424027  0.24543955  0.89460254     0.05510
C238        C  0.96626593  0.23960874  0.89058988     0.03600
H239        H  0.00406870  0.22342204  0.93355384     0.08710
H240        H  0.95675129  0.25030514  0.87082927     0.07540
N241        N  0.22098314  0.94879217  0.01402324    -0.26840
N242        N  0.23029803  0.96076968  0.98281460    -0.34700
C243        C  0.24701835  0.96462973  0.99691067     0.01500
C244        C  0.24804543  0.95513329  0.03916713     0.07520
C245        C  0.23134351  0.94540288  0.04910093    -0.05580
H246        H  0.25731085  0.97513783  0.97882503     0.08190
H247        H  0.22693918  0.93692343  0.07979477     0.09390
Cu248      Cu  0.21915093  0.97582965  0.92597907     0.44170
Cu249      Cu  0.19441419  0.93876451  0.00958991     0.41990
Cu250      Cu  0.17106443  0.97182627  0.92419014     0.43880
N251        N  0.20359595  0.99511761  0.87974707    -0.34230
N252        N  0.18607681  0.99407210  0.87999846    -0.28480
C253        C  0.17987858  0.01010517  0.84817178    -0.04580
C254        C  0.19414823  0.02180940  0.82677704     0.07630
C255        C  0.20900204  0.01182828  0.84752663     0.01430
H256        H  0.16597906  0.01325864  0.84154341     0.09080
H257        H  0.22269219  0.01692650  0.84060219     0.08160
N258        N  0.15867115  0.94784326  0.97084966    -0.35680
N259        N  0.16738511  0.93460603  0.00136526    -0.27860
C260        C  0.15570990  0.92194092  0.02778310    -0.03100
C261        C  0.13885291  0.92767629  0.01322708     0.05510
C262        C  0.14119478  0.94436900  0.97743582     0.03600
H263        H  0.15919386  0.91130232  0.05733295     0.08710
H264        H  0.13095832  0.95433655  0.95889360     0.07540
N265        N  0.03589996  0.95734216  0.08751723    -0.26840
N266        N  0.05069880  0.97163331  0.09045591    -0.34700
C267        C  0.04710072  0.99798115  0.08412599     0.01500
C268        C  0.02912425  0.00038667  0.07550078     0.07520
C269        C  0.02250728  0.97405201  0.07806997    -0.05580
H270        H  0.05705016  0.01391758  0.08354553     0.08190
H271        H  0.00914672  0.96725836  0.07101723     0.09390
Cu272      Cu  0.07507174  0.95323308  0.09029709     0.44170
Cu273      Cu  0.03541108  0.91555551  0.09170908     0.41990
Cu274      Cu  0.07627291  0.87883572  0.07570704     0.43880
N275        N  0.09670832  0.93195720  0.06851575    -0.34230
N276        N  0.09753548  0.90532414  0.06343292    -0.28480
C277        C  0.11317765  0.89936304  0.04466950    -0.04580
C278        C  0.12228591  0.92342866  0.03716421     0.07630
C279        C  0.11147251  0.94356631  0.05243082     0.01430
H280        H  0.11712554  0.87924608  0.03482892     0.09080
H281        H  0.11385086  0.96523053  0.05051421     0.08160
N282        N  0.05155205  0.85993405  0.08403669    -0.35680
N283        N  0.03689489  0.87379011  0.09075650    -0.27860
C284        C  0.02290755  0.85678141  0.09032060    -0.03100
C285        C  0.02888217  0.83088299  0.08273763     0.05510
C286        C  0.04713791  0.83353099  0.07889236     0.03600
H287        H  0.00924481  0.86312694  0.09174916     0.08710
H288        H  0.05631627  0.81783833  0.06968931     0.07540
N289        N  0.17072368  0.43668837  0.89070629    -0.26840
N290        N  0.16309309  0.44897857  0.92380558    -0.34700
C291        C  0.14563358  0.44392391  0.92279242     0.01500
C292        C  0.14202344  0.42733176  0.88773166     0.07520
C293        C  0.15822271  0.42313281  0.86782199    -0.05580
H294        H  0.13609762  0.45312707  0.94435139     0.08190
H295        H  0.16051812  0.41307752  0.83711016     0.09550
Cu296      Cu  0.17609048  0.47480413  0.96598186     0.44170
Cu297      Cu  0.19725061  0.44325795  0.87636435     0.41990
Cu298      Cu  0.22292573  0.48346698  0.95754780     0.43880
N299        N  0.19049182  0.49991255  0.00652213    -0.34230
N300        N  0.20789426  0.50281023  0.00470247    -0.28480
C301        C  0.21306467  0.52071193  0.03540983    -0.04580
C302        C  0.19809724  0.52948342  0.05717763     0.07630
C303        C  0.18407049  0.51587555  0.03797472     0.01430
H304        H  0.22660464  0.52729292  0.04076488     0.09080
H305        H  0.17017520  0.51747970  0.04608294     0.08160
N306        N  0.23320167  0.46713684  0.90062156    -0.35680
N307        N  0.22372660  0.45434432  0.87055197    -0.27860
C308        C  0.23396723  0.45007333  0.83549541    -0.03100
C309        C  0.25071300  0.46003624  0.84431058     0.05510
C310        C  0.24984849  0.47063360  0.88578731     0.03600
H311        H  0.22948425  0.44065183  0.80565035     0.08710
H312        H  0.26023919  0.48149019  0.90289816     0.07540
N313        N  0.03550109  0.45741536  0.81842086    -0.26840
N314        N  0.04910712  0.46915184  0.83789635    -0.34700
C315        C  0.04431713  0.49335466  0.85336369     0.01500
C316        C  0.02674793  0.49753280  0.84292056     0.07520
C317        C  0.02157067  0.47424395  0.82045534    -0.05580
H318        H  0.05278781  0.50627437  0.87295436     0.08190
H319        H  0.00848850  0.46931491  0.80832145     0.09390
Cu320      Cu  0.07295156  0.45073426  0.84658393     0.44170
Cu321      Cu  0.03653902  0.41683563  0.79998619     0.41990
Cu322      Cu  0.07688862  0.37940031  0.83696703     0.43880
N323        N  0.09646215  0.43116022  0.85399759    -0.34230
N324        N  0.09859766  0.40474284  0.84987299    -0.28480
C325        C  0.11567127  0.39892527  0.85883542    -0.04580
C326        C  0.12433136  0.42301161  0.86934495     0.07630
C327        C  0.11174024  0.44284163  0.86606870     0.01430
H328        H  0.12105656  0.37868414  0.86017409     0.09080
H329        H  0.11338988  0.46418827  0.87341673     0.08160
N330        N  0.05187416  0.36212709  0.82570193    -0.35680
N331        N  0.03819573  0.37503406  0.80878683    -0.27860
C332        C  0.02407193  0.35820629  0.80836594    -0.03100
C333        C  0.02868263  0.33378271  0.82751350     0.05510
C334        C  0.04651994  0.33704799  0.83764682     0.03600
H335        H  0.01105486  0.36414505  0.79754515     0.08710
H336        H  0.05473376  0.32291017  0.85522671     0.07540
N337        N  0.84244750  0.65140695  0.92417734    -0.26840
N338        N  0.84817900  0.64062413  0.88753558    -0.34700
C339        C  0.86559879  0.64522253  0.88371189     0.01500
C340        C  0.87131354  0.65967238  0.91953957     0.07520
C341        C  0.85627398  0.66346157  0.94469008    -0.05580
H342        H  0.87368876  0.63731569  0.85769169     0.08190
H343        H  0.85565639  0.67251156  0.97667849     0.09390
Cu344      Cu  0.83320275  0.61709830  0.84591657     0.44170
Cu345      Cu  0.81638611  0.64549830  0.94450323     0.41990
Cu346      Cu  0.78747169  0.60939980  0.86342354     0.43880
N347        N  0.81755490  0.59277371  0.80703592    -0.34230
N348        N  0.80027156  0.59018414  0.81237981    -0.28480
C349        C  0.79392710  0.57243405  0.78275717    -0.04580
C350        C  0.80804319  0.56339319  0.75800229     0.07630
C351        C  0.82278052  0.57672964  0.77434456     0.01430
H352        H  0.78022623  0.56594497  0.78039388     0.09080
H353        H  0.83636116  0.57470951  0.76368608     0.08160
N354        N  0.77926501  0.62470453  0.92303208    -0.35680
N355        N  0.78967757  0.63578535  0.95302044    -0.27860
C356        C  0.78009277  0.64000804  0.98930496    -0.03100
C357        C  0.76286683  0.63175157  0.98132800     0.05510
C358        C  0.76275879  0.62233269  0.93911263     0.03600
H359        H  0.78525859  0.64865505  0.01908921     0.08710
H360        H  0.75166154  0.61333992  0.92192375     0.07540
N361        N  0.97927056  0.62459438  0.94960120    -0.26840
N362        N  0.96562428  0.61719451  0.92549014    -0.34700
C363        C  0.96951388  0.59445941  0.90373176     0.01500
C364        C  0.98655663  0.58706787  0.91460103     0.07520
C365        C  0.99238333  0.60666326  0.94385887    -0.05580
H366        H  0.96073746  0.58445584  0.88087921     0.08190
H367        H  0.00527415  0.60807087  0.95909149     0.09390
Cu368      Cu  0.94268456  0.63895053  0.92393994     0.44170
Cu369      Cu  0.97871416  0.66026391  0.98524182     0.41990
Cu370      Cu  0.93674634  0.70006205  0.98680812     0.43880
N371        N  0.91883948  0.65761721  0.93225948    -0.34230
N372        N  0.91579963  0.67903491  0.95684508    -0.28480
C373        C  0.89813673  0.68355507  0.95704423    -0.04580
C374        C  0.89005080  0.66413429  0.93075247     0.07630
C375        C  0.90360607  0.64824789  0.91576819     0.01430
H376        H  0.89173962  0.69980688  0.97444017     0.09080
H377        H  0.90248367  0.63051751  0.89521207     0.08160
N378        N  0.96155845  0.71421306  0.00828166    -0.35680
N379        N  0.97615699  0.69949081  0.00867878    -0.27860
C380        C  0.98974766  0.71480139  0.02311276    -0.03100
C381        C  0.98360716  0.74043244  0.03207189     0.05510
C382        C  0.96568056  0.73944417  0.02220310     0.03600
H383        H  0.00330451  0.70803411  0.02533060     0.08710
H384        H  0.95639552  0.75596211  0.02431567     0.07540
N385        N  0.34589498  0.45115504  0.76053490    -0.26840
N386        N  0.35300720  0.46574104  0.72875477    -0.34700
C387        C  0.37066193  0.46256089  0.72940577     0.01500
C388        C  0.37483234  0.44467652  0.76251480     0.07520
C389        C  0.35882045  0.43786782  0.78171337    -0.05580
H390        H  0.37987464  0.47338242  0.70851515     0.08190
H391        H  0.35685680  0.42595423  0.81095303     0.09390
Cu392      Cu  0.33852721  0.49048098  0.68730353     0.44170
Cu393      Cu  0.31934752  0.45357419  0.77700343     0.41990
Cu394      Cu  0.29105412  0.48903995  0.69928707     0.43880
N395        N  0.32140156  0.51166902  0.64692269    -0.34230
N396        N  0.30395023  0.51054175  0.65042734    -0.28480
C397        C  0.29673100  0.52628559  0.61940305    -0.04580
C398        C  0.31032405  0.53795028  0.59536494     0.07630
C399        C  0.32576450  0.52824713  0.61372502     0.01430
H400        H  0.28266718  0.52939521  0.61524933     0.09080
H401        H  0.33920529  0.53288326  0.60374695     0.08160
N402        N  0.28213850  0.47168026  0.75686177    -0.35680
N403        N  0.29257952  0.46044913  0.78626409    -0.27860
C404        C  0.28298558  0.45447766  0.82198198    -0.03100
C405        C  0.26567325  0.46173341  0.81414008     0.05510
C406        C  0.26553858  0.47246081  0.77263593     0.03600
H407        H  0.28822348  0.44547965  0.85134960     0.08710
H408        H  0.25438983  0.48133642  0.75592815     0.07540
N409        N  0.41746879  0.42205894  0.80512504    -0.26840
N410        N  0.41970022  0.44874079  0.80343409    -0.34700
C411        C  0.40497688  0.46025761  0.78803639     0.01500
C412        C  0.39262427  0.44019657  0.78024704     0.07520
C413        C  0.40082253  0.41612491  0.79161874    -0.05580
H414        H  0.40336830  0.48184349  0.78312525     0.08190
H415        H  0.39533105  0.39583372  0.78884354     0.09390
Cu416      Cu  0.44198070  0.47039976  0.82115304     0.44170
Cu417      Cu  0.43795887  0.39518105  0.82176444     0.41990
Cu418      Cu  0.47994104  0.43230843  0.82899965     0.43880
N419        N  0.46599022  0.48811277  0.83597452    -0.34230
N420        N  0.48048775  0.47351415  0.83763922    -0.28480
C421        C  0.49424978  0.48949489  0.84859301    -0.04580
C422        C  0.48805314  0.51552710  0.85422307     0.07630
C423        C  0.47004136  0.51398130  0.84588210     0.01430
H424        H  0.50769837  0.48259010  0.85279007     0.09080
H425        H  0.46056889  0.53026302  0.84763615     0.08160
N426        N  0.47760341  0.39096057  0.83385602    -0.35680
N427        N  0.46262167  0.37676115  0.83322450    -0.27860
C428        C  0.46647970  0.35056159  0.84192952    -0.03100
C429        C  0.48468574  0.34868813  0.84794005     0.05510
C430        C  0.49118322  0.37459719  0.84270471     0.03600
H431        H  0.45679308  0.33432075  0.84476856     0.08710
H432        H  0.50476874  0.38132545  0.84680049     0.07540
N433        N  0.70406865  0.58549845  0.17009230    -0.26840
N434        N  0.68658715  0.58687850  0.17207159    -0.34700
C435        C  0.68072397  0.57091610  0.20468739     0.01500
C436        C  0.69517317  0.55899397  0.22436329     0.07520
C437        C  0.70977346  0.56871413  0.20166428    -0.05580
H438        H  0.66693223  0.56825330  0.21344050     0.08190
H439        H  0.72349759  0.56362487  0.20716767     0.09390
Cu440      Cu  0.67119549  0.61041478  0.13087954     0.44170
Cu441      Cu  0.71924827  0.60522420  0.12284822     0.41990
Cu442      Cu  0.69391391  0.64309671  0.04286542     0.43880
N443        N  0.65879288  0.63636574  0.08737408    -0.34230
N444        N  0.66730926  0.64882822  0.05538101    -0.28480
C445        C  0.65569886  0.66325767  0.03182785    -0.04580
C446        C  0.63910341  0.65987790  0.05011207     0.07630
C447        C  0.64147635  0.64238196  0.08482035     0.01430
H448        H  0.65891529  0.67400892  0.00208609     0.09080
H449        H  0.63125915  0.63364462  0.10536229     0.08160
N450        N  0.72058770  0.63479686  0.03685137    -0.35680
N451        N  0.73014542  0.62247163  0.06691634    -0.27860
C452        C  0.74696122  0.62062371  0.05261962    -0.03100
C453        C  0.74782394  0.63190357  0.01143103     0.05510
C454        C  0.73089858  0.64047944  0.00230925     0.03600
H455        H  0.75748773  0.61042840  0.06979798     0.08710
H456        H  0.72634163  0.64985195  0.97254782     0.07540
N457        N  0.54096377  0.64948489  0.91797253    -0.26840
N458        N  0.55445472  0.63326434  0.92482387    -0.34700
C459        C  0.54963737  0.60778409  0.91441856     0.01500
C460        C  0.53210423  0.60799816  0.90099973     0.07520
C461        C  0.52706745  0.63483614  0.90373676    -0.05580
H462        H  0.55808783  0.59032115  0.91784032     0.08190
H463        H  0.51404286  0.64297948  0.89772341     0.09390
Cu464      Cu  0.57739862  0.64663926  0.95450193     0.44170
Cu465      Cu  0.54163778  0.69000134  0.93322177     0.41990
Cu466      Cu  0.57708416  0.71537687  0.00196918     0.43880
N467        N  0.59747831  0.66293109  0.99203904    -0.34230
N468        N  0.59771765  0.68755443  0.00923418    -0.28480
C469        C  0.61279537  0.69058680  0.03240219    -0.04580
C470        C  0.62219895  0.66669277  0.02967201     0.07630
C471        C  0.61214052  0.64969295  0.00399890     0.01430
H472        H  0.61647092  0.70861085  0.05044333     0.09080
H473        H  0.61517029  0.62905623  0.99489120     0.08160
N474        N  0.55400922  0.73707083  0.98799279    -0.35680
N475        N  0.54170830  0.72781321  0.96102813    -0.27860
C476        C  0.52817412  0.74518830  0.95955065    -0.03100
C477        C  0.53193331  0.76642241  0.98711887     0.05510
C478        C  0.54839135  0.76072479  0.00488899     0.03600
H479        H  0.51600797  0.74177567  0.94170181     0.08710
H480        H  0.55543130  0.77239426  0.02925858     0.07540
N481        N  0.70600033  0.08491981  0.72465843    -0.26840
N482        N  0.68853238  0.08659912  0.72272647    -0.34700
C483        C  0.68259188  0.07149248  0.68932254     0.01500
C484        C  0.69696411  0.05979645  0.66906651     0.07520
C485        C  0.71162128  0.06876431  0.69223969    -0.05580
H486        H  0.66878494  0.06917855  0.68053769     0.08190
H487        H  0.72530685  0.06351120  0.68656415     0.09390
Cu488      Cu  0.67314421  0.10916603  0.76508721     0.44170
Cu489      Cu  0.72116692  0.10325669  0.77314291     0.41990
Cu490      Cu  0.69544704  0.13887561  0.85543206     0.43880
N491        N  0.66058548  0.13411465  0.80958559    -0.34230
N492        N  0.66897906  0.14554016  0.84262857    -0.28480
C493        C  0.65736985  0.15982931  0.86633564    -0.04580
C494        C  0.64090615  0.15742116  0.84703218     0.07630
C495        C  0.64334181  0.14064369  0.81156466     0.01430
H496        H  0.66048762  0.16993344  0.89663579     0.09080
H497        H  0.63321566  0.13286467  0.78989462     0.08160
N498        N  0.72209120  0.13039282  0.86106351    -0.35680
N499        N  0.73178059  0.11899430  0.83036264    -0.27860
C500        C  0.74856764  0.11693654  0.84475462    -0.03100
C501        C  0.74925983  0.12711065  0.88660800     0.05510
C502        C  0.73228440  0.13524537  0.89605026     0.03600
H503        H  0.75919701  0.10736009  0.82707455     0.08710
H504        H  0.72761801  0.14380598  0.92628954     0.07540
N505        N  0.54225038  0.15137102  0.97855899    -0.26840
N506        N  0.55473875  0.13398446  0.96841321    -0.34700
C507        C  0.54883860  0.10870681  0.97671180     0.01500
C508        C  0.53167850  0.11036607  0.99236840     0.07520
C509        C  0.52796162  0.13774259  0.99319198    -0.05580
H510        H  0.55618164  0.09046350  0.96991999     0.08190
H511        H  0.51544954  0.14697467  0.00128211     0.09390
Cu512      Cu  0.57772823  0.14586562  0.93735635     0.44170
Cu513      Cu  0.54420725  0.19198751  0.96443171     0.41990
Cu514      Cu  0.57971347  0.21552437  0.89377452     0.43880
N515        N  0.59859613  0.16161773  0.90182620    -0.34230
N516        N  0.59974040  0.18666332  0.88629472    -0.28480
C517        C  0.61520965  0.18933202  0.86457144    -0.04580
C518        C  0.62391615  0.16477421  0.86650776     0.07630
C519        C  0.61304353  0.14775550  0.89020840     0.01430
H520        H  0.61962720  0.20758064  0.84802334     0.09080
H521        H  0.61540093  0.12672281  0.89832141     0.08160
N522        N  0.55664479  0.23763175  0.90630225    -0.35680
N523        N  0.54423138  0.22889141  0.93343659    -0.27860
C524        C  0.53041957  0.24574594  0.93238797    -0.03100
C525        C  0.53408536  0.26628547  0.90314064     0.05510
C526        C  0.55089340  0.26058230  0.88715232     0.03600
H527        H  0.51808958  0.24227471  0.94957442     0.08710
H528        H  0.55806808  0.27166091  0.86222800     0.07540
N529        N  0.34347722  0.94898614  0.12093332    -0.26840
N530        N  0.35025758  0.96292617  0.15372684    -0.34700
C531        C  0.36794698  0.96051096  0.15326140     0.01500
C532        C  0.37251179  0.94380450  0.11910782     0.07520
C533        C  0.35669513  0.93685084  0.09912751    -0.05580
H534        H  0.37689271  0.97106214  0.17508234     0.08190
H535        H  0.35503586  0.92563739  0.06916014     0.09390
Cu536      Cu  0.33535232  0.98589134  0.19622386     0.44170
Cu537      Cu  0.31690121  0.95091161  0.10483392     0.41990
Cu538      Cu  0.28803040  0.98432251  0.18487161     0.43880
N539        N  0.31840313  0.00601454  0.23780468    -0.34230
N540        N  0.30094319  0.00500788  0.23471704    -0.28480
C541        C  0.29393358  0.02035212  0.26650649    -0.04580
C542        C  0.30771470  0.03158735  0.29045709     0.07630
C543        C  0.32299903  0.02204083  0.27132374     0.01430
H544        H  0.27990830  0.02361375  0.27111437     0.09080
H545        H  0.33650954  0.02652906  0.28082437     0.08160
N546        N  0.27945304  0.96757481  0.12641336    -0.35680
N547        N  0.29003982  0.95720859  0.09652147    -0.27860
C548        C  0.28049818  0.95128485  0.06076461    -0.03100
C549        C  0.26307552  0.95764493  0.06898491     0.05510
C550        C  0.26280973  0.96778200  0.11082539     0.03600
H551        H  0.28583851  0.94275685  0.03119019     0.08710
H552        H  0.25149232  0.97574713  0.12801434     0.07540
N553        N  0.41579438  0.92354206  0.07812348    -0.26840
N554        N  0.41777092  0.95019289  0.08183337    -0.34700
C555        C  0.40271263  0.96091787  0.09667967     0.01500
C556        C  0.39046029  0.94037633  0.10195002     0.07520
C557        C  0.39903626  0.91686346  0.08974270    -0.05580
H558        H  0.40081690  0.98228954  0.10298284     0.08190
H559        H  0.39372354  0.89639516  0.09076277     0.09390
Cu560      Cu  0.43995564  0.97306600  0.06699064     0.44170
Cu561      Cu  0.43645827  0.89725980  0.06127579     0.41990
Cu562      Cu  0.47734231  0.93545128  0.04706191     0.43880
N563        N  0.46356761  0.99153340  0.05027125    -0.34230
N564        N  0.47776900  0.97688116  0.04321230    -0.28480
C565        C  0.49128276  0.99319510  0.03170526    -0.04580
C566        C  0.48525819  0.01952606  0.03142992     0.07630
C567        C  0.46759761  0.01784706  0.04349314     0.01430
H568        H  0.50445835  0.98636308  0.02369681     0.09080
H569        H  0.45834256  0.03435923  0.04636147     0.08160
N570        N  0.47563546  0.89406889  0.04361127    -0.35680
N571        N  0.46100655  0.87930153  0.04791542    -0.27860
C572        C  0.46514069  0.85302744  0.04101835    -0.03100
C573        C  0.48314923  0.85172897  0.03169405     0.05510
C574        C  0.48925594  0.87805361  0.03381173     0.03600
H575        H  0.45573329  0.83631711  0.04150996     0.08710
H576        H  0.50261972  0.88520490  0.02756575     0.07540
N577        N  0.33469060  0.64999230  0.39008184    -0.26840
N578        N  0.34260421  0.63845956  0.42355032    -0.34700
C579        C  0.35995363  0.64448744  0.42230017     0.01500
C580        C  0.36319203  0.66096033  0.38670154     0.07520
C581        C  0.34688222  0.66394059  0.36668641    -0.05580
H582        H  0.36972464  0.63584131  0.44386255     0.08190
H583        H  0.34436255  0.67336825  0.33551645     0.09390
Cu584      Cu  0.33011698  0.61208629  0.46619038     0.44170
Cu585      Cu  0.30826778  0.64200636  0.37599579     0.41990
Cu586      Cu  0.28328621  0.60045647  0.45659214     0.43880
N587        N  0.31606452  0.58638529  0.50691815    -0.34230
N588        N  0.29875110  0.58236646  0.50457057    -0.28480
C589        C  0.29387176  0.56461064  0.53591542    -0.04580
C590        C  0.30891446  0.55710890  0.55869768     0.07630
C591        C  0.32269503  0.57130005  0.53936319     0.01430
H592        H  0.28045968  0.55738593  0.54122944     0.09080
H593        H  0.33655771  0.57077301  0.54818913     0.08160
N594        N  0.27252949  0.61712652  0.40014956    -0.35680
N595        N  0.28181758  0.63057064  0.37035552    -0.27860
C596        C  0.27140845  0.63539387  0.33577797    -0.03100
C597        C  0.25471546  0.62514348  0.34456227     0.05510
C598        C  0.25582065  0.61371742  0.38556439     0.03600
H599        H  0.27574890  0.64537040  0.30619281     0.08710
H600        H  0.24554809  0.60241896  0.40247069     0.07540
N601        N  0.46936362  0.62919024  0.32021458    -0.26840
N602        N  0.45520008  0.61700522  0.33636764    -0.34700
C603        C  0.45982689  0.59341857  0.35458426     0.01500
C604        C  0.47789461  0.59038380  0.34963066     0.07520
C605        C  0.48350143  0.61339437  0.32712590    -0.05580
H606        H  0.45094461  0.58064241  0.37342402     0.08190
H607        H  0.49699290  0.61928941  0.31952968     0.09390
Cu608      Cu  0.43125778  0.63565919  0.34081095     0.44170
Cu609      Cu  0.46885726  0.66977065  0.30328152     0.41990
Cu610      Cu  0.42877452  0.70838641  0.33636010     0.43880
N611        N  0.40828416  0.65645270  0.34949175    -0.34230
N612        N  0.40669047  0.68311080  0.34795647    -0.28480
C613        C  0.38981370  0.68930302  0.35852602    -0.04580
C614        C  0.38072474  0.66523562  0.36719356     0.07630
C615        C  0.39287447  0.64503323  0.36132324     0.01430
H616        H  0.38487047  0.70969051  0.36225369     0.09080
H617        H  0.39089104  0.62354343  0.36712235     0.08160
N618        N  0.45420827  0.72516760  0.32668260    -0.35680
N619        N  0.46805126  0.71126082  0.31294814    -0.27860
C620        C  0.48255898  0.72724662  0.31392265    -0.03100
C621        C  0.47788599  0.75241925  0.32948052     0.05510
C622        C  0.45975689  0.75047622  0.33690186     0.03600
H623        H  0.49578197  0.72046791  0.30629050     0.08710
H624        H  0.45142357  0.76584900  0.35105904     0.07540
N625        N  0.66303401  0.44957051  0.42899313    -0.26840
N626        N  0.65609609  0.46177662  0.39478162    -0.34700
C627        C  0.63865087  0.45656483  0.39373264     0.01500
C628        C  0.63425808  0.44015328  0.42875062     0.07520
C629        C  0.65007245  0.43600022  0.45054675    -0.05580
H630        H  0.62962697  0.46535456  0.37041819     0.08190
H631        H  0.65179695  0.42574729  0.48137991     0.09390
Cu632      Cu  0.66985878  0.48737920  0.35279496     0.44170
Cu633      Cu  0.68941219  0.45551852  0.44592373     0.41990
Cu634      Cu  0.71656434  0.49399001  0.36564750     0.43880
N635        N  0.68542217  0.51157087  0.31250983    -0.34230
N636        N  0.70282380  0.51353135  0.31629064    -0.28480
C637        C  0.70908123  0.53052355  0.28536060    -0.04580
C638        C  0.69486699  0.53976504  0.26118169     0.07630
C639        C  0.68009141  0.52734353  0.27935766     0.01430
H640        H  0.72288637  0.53608795  0.28130451     0.09080
H641        H  0.66645728  0.52954848  0.26924499     0.08160
N642        N  0.72606993  0.47732777  0.42319995    -0.35680
N643        N  0.71611546  0.46513808  0.45307034    -0.27860
C644        C  0.72612013  0.45999257  0.48828520    -0.03100
C645        C  0.74319064  0.46875208  0.47973457     0.05510
C646        C  0.74275616  0.47955441  0.43828080     0.03600
H647        H  0.72130415  0.45058936  0.51790724     0.08710
H648        H  0.75355146  0.48950310  0.42118053     0.07540
N649        N  0.52714327  0.47313305  0.47767144    -0.26840
N650        N  0.54091663  0.48235633  0.45569232    -0.34700
C651        C  0.53645711  0.50473430  0.43371002     0.01500
C652        C  0.51886242  0.50987940  0.44210775     0.07520
C653        C  0.51329388  0.48943711  0.47022129    -0.05580
H654        H  0.54507415  0.51547402  0.41125068     0.08190
H655        H  0.50001844  0.48587547  0.48236937     0.09390
Cu656      Cu  0.56400751  0.46154598  0.45301853     0.44170
Cu657      Cu  0.52851260  0.43613232  0.50887867     0.41990
Cu658      Cu  0.56997962  0.39465121  0.49831572     0.43880
N659        N  0.58758154  0.44199059  0.45352909    -0.34230
N660        N  0.59087948  0.41813391  0.47128584    -0.28480
C661        C  0.60842345  0.41325708  0.46637192    -0.04580
C662        C  0.61601160  0.43506156  0.44386315     0.07630
C663        C  0.60235772  0.45261027  0.43646747     0.01430
H664        H  0.61502552  0.39509079  0.47725602     0.09080
H665        H  0.60309009  0.47210182  0.42024923     0.08160
N666        N  0.54471041  0.37974746  0.51741544    -0.35680
N667        N  0.53054270  0.39518941  0.52192409    -0.27860
C668        C  0.51634801  0.37956420  0.53082901    -0.03100
C669        C  0.52149059  0.35288581  0.53189392     0.05510
C670        C  0.53961188  0.35362240  0.52358262     0.03600
H671        H  0.50299949  0.38705932  0.53420602     0.08710
H672        H  0.54823946  0.33636478  0.52022209     0.07540
N673        N  0.33314634  0.14655922  0.49051346    -0.26840
N674        N  0.34116423  0.13422086  0.45801091    -0.34700
C675        C  0.35840183  0.14114425  0.45828569     0.01500
C676        C  0.36141201  0.15907063  0.49211350     0.07520
C677        C  0.34510653  0.16193992  0.51214916    -0.05580
H678        H  0.36828535  0.13228693  0.43730405     0.08190
H679        H  0.34248064  0.17234397  0.54239109     0.09390
Cu680      Cu  0.32883950  0.10613083  0.41773351     0.44170
Cu681      Cu  0.30701589  0.13786493  0.50653137     0.41990
Cu682      Cu  0.28203462  0.09414132  0.42990884     0.43880
N683        N  0.31442539  0.07986360  0.37848176    -0.34230
N684        N  0.29712930  0.07588144  0.38177045    -0.28480
C685        C  0.29191576  0.05811724  0.35089947    -0.04580
C686        C  0.30671156  0.05054099  0.32735141     0.07630
C687        C  0.32071028  0.06469326  0.34579824     0.01430
H688        H  0.27843183  0.05103568  0.34631287     0.09080
H689        H  0.33446922  0.06420900  0.33601376     0.08160
N690        N  0.27163217  0.11088673  0.48635598    -0.35680
N691        N  0.28094116  0.12522942  0.51489241    -0.27860
C692        C  0.27079389  0.13009914  0.54990959    -0.03100
C693        C  0.25426359  0.11885999  0.54262115     0.05510
C694        C  0.25517323  0.10686512  0.50214049     0.03600
H695        H  0.27517470  0.14090479  0.57862286     0.08710
H696        H  0.24493036  0.09498001  0.48627085     0.07540
N697        N  0.46857515  0.13445744  0.55001148    -0.26840
N698        N  0.45391899  0.12029167  0.54346149    -0.34700
C699        C  0.45804620  0.09475143  0.53288303     0.01500
C700        C  0.47625581  0.09280303  0.53314787     0.07520
C701        C  0.48259375  0.11829927  0.54404905    -0.05580
H702        H  0.44858867  0.07933082  0.52292309     0.08190
H703        H  0.49627536  0.12505072  0.54438961     0.09390
Cu704      Cu  0.42968965  0.13837542  0.54157374     0.44170
Cu705      Cu  0.46777700  0.17589649  0.55791977     0.41990
Cu706      Cu  0.42545731  0.21231915  0.54118936     0.43880
N707        N  0.40650608  0.15833307  0.53063493    -0.34230
N708        N  0.40424069  0.18491747  0.53034529    -0.28480
C709        C  0.38727661  0.18977843  0.51861546    -0.04580
C710        C  0.37889312  0.16499782  0.51093711     0.07630
C711        C  0.39150003  0.14574788  0.51873726     0.01430
H712        H  0.38178642  0.20973361  0.51364541     0.09080
H713        H  0.39008767  0.12403358  0.51450191     0.08160
N714        N  0.45048508  0.23118741  0.54954070    -0.35680
N715        N  0.46526554  0.21746024  0.55564182    -0.27860
C716        C  0.47909812  0.23469512  0.55712234    -0.03100
C717        C  0.47306126  0.26081164  0.55207895     0.05510
C718        C  0.45476609  0.25786317  0.54729620     0.03600
H719        H  0.49274813  0.22846246  0.55993287     0.08710
H720        H  0.44532257  0.27385483  0.54174759     0.07540
N721        N  0.66295826  0.95101792  0.46693556    -0.26840
N722        N  0.65620699  0.96408146  0.50044984    -0.34700
C723        C  0.63876573  0.95893224  0.50240262     0.01500
C724        C  0.63425189  0.94159186  0.46878851     0.07520
C725        C  0.64992854  0.93687461  0.44682849    -0.05580
H726        H  0.62985079  0.96819699  0.52545078     0.08190
H727        H  0.65151829  0.92574349  0.41680953     0.09390
Cu728      Cu  0.67043002  0.99008287  0.54051671     0.44170
Cu729      Cu  0.68915121  0.95645018  0.44879637     0.41990
Cu730      Cu  0.71724900  0.99522278  0.52648151     0.43880
N731        N  0.68651065  0.01375359  0.58003568    -0.34230
N732        N  0.70392136  0.01521030  0.57596226    -0.28480
C733        C  0.71047247  0.03175303  0.60705738    -0.04580
C734        C  0.69642853  0.04118518  0.63161636     0.07630
C735        C  0.68146853  0.02937610  0.61349589     0.01430
H736        H  0.72436088  0.03675925  0.61113208     0.09080
H737        H  0.66789861  0.03176267  0.62401454     0.08160
N738        N  0.72611966  0.97747450  0.46925027    -0.35680
N739        N  0.71580591  0.96522965  0.44028481    -0.27860
C740        C  0.72552477  0.95884485  0.40518984    -0.03100
C741        C  0.74278265  0.96685811  0.41289776     0.05510
C742        C  0.74277676  0.97848275  0.45372077     0.03600
H743        H  0.72042210  0.94883806  0.37644317     0.08710
H744        H  0.75389695  0.98792133  0.47020215     0.07540
N745        N  0.52444124  0.96241073  0.44609340    -0.26840
N746        N  0.53898283  0.97653119  0.45404998    -0.34700
C747        C  0.53472516  0.00144497  0.46759504     0.01500
C748        C  0.51651210  0.00306151  0.46779711     0.07520
C749        C  0.51030537  0.97801529  0.45402141    -0.05580
H750        H  0.54413884  0.01687417  0.47776681     0.08190
H751        H  0.49664198  0.97136376  0.45154795     0.09390
Cu752      Cu  0.56334820  0.95950317  0.44854328     0.44170
Cu753      Cu  0.52611048  0.92231275  0.42785394     0.41990
Cu754      Cu  0.57040960  0.89022452  0.41079962     0.43880
N755        N  0.58740343  0.94124054  0.44612241    -0.34230
N756        N  0.59089352  0.91662176  0.43164194    -0.28480
C757        C  0.60853618  0.91258017  0.43599420    -0.04580
C758        C  0.61601692  0.93569096  0.45475370     0.07630
C759        C  0.60221559  0.95317161  0.46057557     0.01430
H760        H  0.61525292  0.89399560  0.42778266     0.09080
H761        H  0.60281538  0.97328703  0.47459549     0.08160
N762        N  0.54560711  0.87146603  0.39860418    -0.35680
N763        N  0.53024450  0.88325304  0.40649646    -0.27860
C764        C  0.51694663  0.86629193  0.39607581    -0.03100
C765        C  0.52392136  0.84262605  0.37995316     0.05510
C766        C  0.54221686  0.84647134  0.38230584     0.03600
H767        H  0.50306901  0.87108085  0.39962018     0.08710
H768        H  0.55229124  0.83234528  0.37227506     0.07540
C769        C  0.48665352  0.06996890  0.51640070    -0.04890
C770        C  0.49606093  0.05333944  0.54546889    -0.02010
C771        C  0.50575411  0.03126044  0.52950303     0.02980
C772        C  0.50602092  0.02581287  0.48443993    -0.04890
C773        C  0.49669946  0.04253772  0.45531424    -0.02000
C774        C  0.48701459  0.06463635  0.47128277     0.02980
C775        C  0.49549145  0.05868731  0.59184364     0.37630
C776        C  0.49748553  0.03743019  0.40887532     0.37620
C777        C  0.47774501  0.08226186  0.44125552     0.36040
C778        C  0.51522939  0.01385556  0.55946263     0.36040
N779        N  0.47037405  0.09639112  0.41738105    -0.38780
N780        N  0.52279837  0.99990780  0.58323119    -0.38780
N781        N  0.49817264  0.03340692  0.37182552    -0.38220
N782        N  0.49499911  0.06293896  0.62884310    -0.38230
C783        C  0.48461551  0.28559230  0.54845050    -0.04890
C784        C  0.48264437  0.30397980  0.51341412    -0.02010
C785        C  0.49489856  0.32557863  0.50761301     0.02980
C786        C  0.50934377  0.32900349  0.53652860    -0.04890
C787        C  0.51128451  0.31081369  0.57161639    -0.02000
C788        C  0.49884525  0.28954185  0.57801711     0.02980
C789        C  0.46841574  0.30028976  0.48219293     0.37630
C790        C  0.52586463  0.31437556  0.60189409     0.37620
C791        C  0.50037243  0.27234780  0.61619944     0.36040
C792        C  0.49296644  0.34377517  0.47075635     0.36040
N793        N  0.50156502  0.25871640  0.64674701    -0.38780
N794        N  0.49144189  0.35829143  0.44137864    -0.38780
N795        N  0.53751914  0.31714120  0.62600125    -0.38220
N796        N  0.45707382  0.29752386  0.45719686    -0.38230
C797        C  0.49016964  0.77524809  0.34093420    -0.04890
C798        C  0.48692952  0.80168448  0.32537636    -0.02010
C799        C  0.49854737  0.82328781  0.33610347     0.02980
C800        C  0.51332832  0.81893233  0.36364454    -0.04890
C801        C  0.51682620  0.79233209  0.37832884    -0.02000
C802        C  0.50531058  0.77063051  0.36710366     0.02980
C803        C  0.47175364  0.80670366  0.29762295     0.37630
C804        C  0.53182055  0.78729980  0.40662628     0.37620
C805        C  0.50861570  0.74377614  0.38456745     0.36040
C806        C  0.49546662  0.84995015  0.31761966     0.36040
N807        N  0.51125066  0.72236477  0.39849725    -0.38780
N808        N  0.49300647  0.87120602  0.30289566    -0.38780
N809        N  0.54377466  0.78309212  0.42914232    -0.38220
N810        N  0.45963215  0.81082635  0.27561517    -0.38230
C811        C  0.48883145  0.56970359  0.37212073    -0.04890
C812        C  0.48343114  0.54210785  0.37171726    -0.02010
C813        C  0.49289250  0.52266668  0.39571966     0.02980
C814        C  0.50804380  0.53052135  0.41970023    -0.04890
C815        C  0.51359597  0.55795636  0.41980534    -0.02000
C816        C  0.50394627  0.57753592  0.39658008     0.02980
C817        C  0.46839421  0.53339201  0.34560854     0.37630
C818        C  0.52903142  0.56626235  0.44487623     0.37620
C819        C  0.50927736  0.60583858  0.39975873     0.36040
C820        C  0.48734472  0.49438868  0.39431533     0.36040
N821        N  0.51363687  0.62835463  0.40245832    -0.38780
N822        N  0.48288644  0.47186289  0.39328086    -0.38780
N823        N  0.54135427  0.57292796  0.46472197    -0.38220
N824        N  0.45639983  0.52631337  0.32493079    -0.38230
C825        C  0.49580650  0.04395255  0.01986669    -0.04890
C826        C  0.50512201  0.04484281  0.98002024    -0.02010
C827        C  0.51670364  0.06666237  0.97076392     0.02980
C828        C  0.51912226  0.08771621  0.00145694    -0.04890
C829        C  0.50926589  0.08730864  0.04060044    -0.02000
C830        C  0.49754677  0.06557769  0.04962387     0.02980
C831        C  0.50244437  0.02360785  0.94791884     0.37630
C832        C  0.51173077  0.10861877  0.07261625     0.37620
C833        C  0.48783804  0.06501326  0.09038308     0.36040
C834        C  0.52567966  0.06769391  0.92899561     0.36040
N835        N  0.48006513  0.06465199  0.12285233    -0.38780
N836        N  0.53280146  0.06839365  0.89564270    -0.38780
N837        N  0.51369945  0.12560541  0.09815424    -0.38220
N838        N  0.50028787  0.00669469  0.92233839    -0.38230
C839        C  0.51946425  0.78825207  0.99881639    -0.04890
C840        C  0.51538475  0.80853644  0.96808818    -0.02010
C841        C  0.50278135  0.82847289  0.97809595     0.02980
C842        C  0.49409899  0.82821991  0.01889141    -0.04890
C843        C  0.49773108  0.80737130  0.04903841    -0.02000
C844        C  0.51045508  0.78750554  0.03909695     0.02980
C845        C  0.52442909  0.80921490  0.92641305     0.37630
C846        C  0.48874360  0.80676707  0.09073281     0.37620
C847        C  0.51413929  0.76605422  0.07005902     0.36040
C848        C  0.49859368  0.84916088  0.94613361     0.36040
N849        N  0.51713234  0.74887664  0.09461608    -0.38780
N850        N  0.49521044  0.86566837  0.92071583    -0.38780
N851        N  0.48154722  0.80621702  0.12398747    -0.38220
N852        N  0.53165127  0.80982755  0.89319143    -0.38230
C853        C  0.49549606  0.32536249  0.86213004    -0.04890
C854        C  0.50423975  0.30939263  0.83093178    -0.02010
C855        C  0.51704054  0.29035081  0.84408051     0.02980
C856        C  0.52129808  0.28730915  0.88866424    -0.04890
C857        C  0.51233028  0.30317557  0.91990801    -0.02000
C858        C  0.49944672  0.32201285  0.90665876     0.02980
C859        C  0.50020365  0.31286055  0.78512528     0.37630
C860        C  0.51686293  0.30101860  0.96567382     0.37620
C861        C  0.49049107  0.33846658  0.93882303     0.36040
C862        C  0.52549993  0.27352735  0.81165294     0.36040
N863        N  0.48331972  0.35157995  0.96442696    -0.38780
N864        N  0.53225517  0.26012153  0.78575266    -0.38780
N865        N  0.52048793  0.29938046  0.00217334    -0.38220
N866        N  0.49697394  0.31561076  0.74857926    -0.38230
C867        C  0.49862457  0.53963878  0.86736885    -0.04890
C868        C  0.49824848  0.56355409  0.84207154    -0.02010
C869        C  0.50931787  0.58573935  0.85279765     0.02980
C870        C  0.52058960  0.58442394  0.88953515    -0.04890
C871        C  0.52048168  0.56075568  0.91570495    -0.02000
C872        C  0.50961848  0.53843364  0.90450413     0.02980
C873        C  0.48690221  0.56512275  0.80403975     0.37630
C874        C  0.53101015  0.55950900  0.95516860     0.37620
C875        C  0.50932241  0.51453143  0.93222684     0.36040
C876        C  0.50954527  0.60948614  0.82478285     0.36040
N877        N  0.50908909  0.49548677  0.95431790    -0.38780
N878        N  0.50968509  0.62840454  0.80241561    -0.38780
N879        N  0.53937320  0.55832726  0.98667009    -0.38220
N880        N  0.47780750  0.56649057  0.77381549    -0.38230
C881        C  0.01577786  0.52061212  0.85850992    -0.04890
C882        C  0.02285459  0.54736957  0.85779402    -0.02010
C883        C  0.01347895  0.56890538  0.87682599     0.02980
C884        C  0.99668922  0.56417597  0.89581022    -0.04890
C885        C  0.98932681  0.53768048  0.89540864    -0.02000
C886        C  0.99885920  0.51596948  0.87723713     0.02980
C887        C  0.03964536  0.55312089  0.83643822     0.37630
C888        C  0.97218031  0.53241386  0.91531306     0.37620
C889        C  0.99144925  0.48873334  0.87989752     0.36040
C890        C  0.02099436  0.59613601  0.87570259     0.36040
N891        N  0.98543102  0.46707896  0.88211205    -0.38780
N892        N  0.02702537  0.61781646  0.87496330    -0.38780
N893        N  0.95850151  0.52811425  0.93106134    -0.38220
N894        N  0.05304065  0.55786308  0.81956829    -0.38230
C895        C  0.01759849  0.80743483  0.06965619    -0.04890
C896        C  0.00750999  0.80889076  0.03099168    -0.02010
C897        C  0.99600053  0.78738251  0.01929226     0.02980
C898        C  0.99460479  0.76408883  0.04597484    -0.04890
C899        C  0.00470130  0.76265849  0.08467769    -0.02000
C900        C  0.01618176  0.78424712  0.09643764     0.02980
C901        C  0.00937531  0.83228860  0.00252003     0.37630
C902        C  0.00285193  0.73927214  0.11312137     0.37620
C903        C  0.02623979  0.78283891  0.13656978     0.36040
C904        C  0.98607774  0.78893488  0.97896587     0.36040
N905        N  0.03422123  0.78163411  0.16865639    -0.38780
N906        N  0.97820113  0.79032581  0.94674634    -0.38780
N907        N  0.00127288  0.72061234  0.13576093    -0.38220
N908        N  0.01097454  0.85099035  0.97997638    -0.38230
C909        C  0.99480295  0.26778294  0.87377032    -0.04890
C910        C  0.01144140  0.26234113  0.85455805    -0.02010
C911        C  0.02221133  0.28372508  0.83839444     0.02980
C912        C  0.01659599  0.31098093  0.84143531    -0.04890
C913        C  0.99964870  0.31628034  0.85948094    -0.02000
C914        C  0.98878045  0.29481083  0.87494501     0.02980
C915        C  0.01740976  0.23456665  0.85033132     0.37630
C916        C  0.99355114  0.34389577  0.86479725     0.37620
C917        C  0.97166659  0.30092451  0.89391617     0.36040
C918        C  0.03899834  0.27737791  0.81794964     0.36040
N919        N  0.95800314  0.30598683  0.90876183    -0.38780
N920        N  0.05238961  0.27211835  0.80183979    -0.38780
N921        N  0.98851227  0.36581797  0.86914840    -0.38220
N922        N  0.02220607  0.21244340  0.84705246    -0.38230
C923        C  0.01927721  0.02497173  0.06093602    -0.04890
C924        C  0.02691973  0.04354374  0.03079831    -0.02010
C925        C  0.01715857  0.06591914  0.01559136     0.02980
C926        C  0.99955163  0.06990521  0.02971818    -0.04890
C927        C  0.99190591  0.05142042  0.05979826    -0.02000
C928        C  0.00175803  0.02934674  0.07568474     0.02980
C929        C  0.04453651  0.03922855  0.01336742     0.37630
C930        C  0.97392182  0.05519360  0.07526468     0.37620
C931        C  0.99384702  0.01156289  0.10820903     0.36040
C932        C  0.02506140  0.08403352  0.98351682     0.36040
N933        N  0.98745125  0.99739880  0.13401690    -0.38780
N934        N  0.03142115  0.09844440  0.95800803    -0.38780
N935        N  0.95953942  0.05792250  0.08744927    -0.38220
N936        N  0.05858941  0.03611442  0.99925991    -0.38230
C937        C  0.00661474  0.05428788  0.53116885    -0.04890
C938        C  0.00294147  0.03243580  0.55954638    -0.02010
C939        C  0.99224814  0.01056397  0.54547816     0.02980
C940        C  0.98538434  0.01026703  0.50270227    -0.04890
C941        C  0.98932491  0.03200356  0.47406944    -0.02000
C942        C  0.99987740  0.05399104  0.48835119     0.02980
C943        C  0.00975207  0.03284514  0.60369072     0.37630
C944        C  0.98304207  0.03141429  0.42945094     0.37620
C945        C  0.00425829  0.07595725  0.45856948     0.36040
C946        C  0.98772738  0.98890619  0.57567115     0.36040
N947        N  0.00781481  0.09344041  0.43482720    -0.38780
N948        N  0.98405904  0.97167723  0.59978202    -0.38780
N949        N  0.97806754  0.03099019  0.39383211    -0.38220
N950        N  0.01520540  0.03321096  0.63887981    -0.38230
C951        C  0.98758674  0.80903052  0.37446209    -0.04890
C952        C  0.98123417  0.78210786  0.37055066    -0.02010
C953        C  0.99275531  0.76120989  0.35780930     0.02980
C954        C  0.01119707  0.76638419  0.35266922    -0.04890
C955        C  0.01741591  0.79353848  0.35504381    -0.02000
C956        C  0.00558694  0.81476257  0.36467323     0.02980
C957        C  0.96303424  0.77539989  0.38193420     0.37630
C958        C  0.03606341  0.79989391  0.34914180     0.37620
C959        C  0.01198633  0.84263010  0.36368511     0.36040
C960        C  0.98532173  0.73451994  0.34880254     0.36040
N961        N  0.01706867  0.86485772  0.36275753    -0.38780
N962        N  0.97930160  0.71331349  0.34155618    -0.38780
N963        N  0.05090393  0.80529655  0.34444790    -0.38220
N964        N  0.94858610  0.76987660  0.39133205    -0.38230
C965        C  0.98723213  0.31035282  0.52729251    -0.04890
C966        C  0.98661349  0.28590409  0.50373517    -0.02010
C967        C  0.99868197  0.26507429  0.51318294     0.02980
C968        C  0.01115448  0.26815041  0.54738939    -0.04890
C969        C  0.01212180  0.29305538  0.57002868    -0.02000
C970        C  0.00025412  0.31413920  0.55977908     0.02980
C971        C  0.97364691  0.28229578  0.46930983     0.37630
C972        C  0.02495949  0.29682802  0.60462546     0.37620
C973        C  0.00129906  0.33973120  0.58289450     0.36040
C974        C  0.99863004  0.24082066  0.48646233     0.36040
N975        N  0.00208233  0.36021382  0.60115808    -0.38780
N976        N  0.99864110  0.22150652  0.46511623    -0.38780
N977        N  0.03521140  0.29997700  0.63220583    -0.38220
N978        N  0.96330114  0.27936062  0.44188623    -0.38230
C979        C  0.98825587  0.51154455  0.40285621    -0.04890
C980        C  0.98121949  0.53143433  0.37474054    -0.02010
C981        C  0.99205445  0.55295380  0.35977806     0.02980
C982        C  0.00998140  0.55458817  0.37253426    -0.04890
C983        C  0.01715596  0.53445690  0.39974139    -0.02000
C984        C  0.00629066  0.51315646  0.41531904     0.02980
C985        C  0.96292517  0.52955041  0.36045730     0.37630
C986        C  0.03557855  0.53623892  0.41307322     0.37620
C987        C  0.01350225  0.49383622  0.44611410     0.36040
C988        C  0.98484458  0.57322765  0.33061721     0.36040
N989        N  0.01925918  0.47852363  0.47081253    -0.38780
N990        N  0.97912704  0.58936639  0.30726646    -0.38780
N991        N  0.05027346  0.53765556  0.42365369    -0.38220
N992        N  0.94833142  0.52808599  0.34906955    -0.38230
loop_ 
_geom_bond_atom_site_label_1 
_geom_bond_atom_site_label_2 
_geom_bond_distance 
_geom_bond_site_symmetry_2 
_ccdc_geom_bond_type 
N1            N2   1.322       .  A
N1            C5   1.348       .  A
N1           Cu9   2.078       .  S
N2            C3   1.344       .  A
N2           Cu8   2.073       .  S
C3            C4   1.381       .  A
C3            H6   1.082       .  S
C4            C5   1.384       .  A
C4           C38   1.467       .  S
C5            H7   1.082       .  S
Cu8          N11   2.073       .  S
Cu9          N19   2.078       .  S
Cu10         N12   2.075       .  S
Cu10         N18   2.075       .  S
N11          N12   1.322       .  A
N11          C15   1.343       .  A
N12          C13   1.348       .  A
C13          C14   1.384       .  A
C13          H16   1.082       .  S
C14          C15   1.383       .  A
C14         C350   1.472       .  S
C15          H17   1.081       .  S
N18          N19   1.324       .  A
N18          C22   1.345       .  A
N19          C20   1.346       .  A
C20          C21   1.380       .  A
C20          H23   1.082       .  S
C21          C22   1.380       .  A
C21         C645   1.464       .  S
C22          H24   1.082       .  S
N25          N26   1.319       .  A
N25          C29   1.341       .  A
N25         Cu33   2.053       .  S
N26          C27   1.344       .  A
N26         Cu32   2.064       .  S
C27          C28   1.385       .  A
C27          H30   1.082       .  S
C28          C29   1.382       .  A
C28         C979   1.483       .  S
C29          H31   1.082       .  S
Cu32         N35   2.064       .  S
Cu33         N43   2.054       .  S
Cu34         N36   2.101       .  S
Cu34         N42   2.101       .  S
N35          N36   1.325       .  A
N35          C39   1.342       .  A
N36          C37   1.351       .  A
C37          C38   1.386       .  A
C37          H40   1.082       .  S
C38          C39   1.376       .  A
C39          H41   1.083       .  S
N42          N43   1.323       .  A
N42          C46   1.351       .  A
N43          C44   1.341       .  A
C44          C45   1.375       .  A
C44          H47   1.082       .  S
C45          C46   1.388       .  A
C45         C965   1.482       .  S
C46          H48   1.082       .  S
N49          N50   1.325       .  A
N49          C53   1.348       .  A
N49         Cu57   2.086       .  S
N50          C51   1.344       .  A
N50         Cu56   2.073       .  S
C51          C52   1.379       .  A
C51          H54   1.082       .  S
C52          C53   1.382       .  A
C52         C597   1.465       .  S
C53          H55   1.082       .  S
Cu56         N59   2.072       .  S
Cu57         N67   2.085       .  S
Cu58         N60   2.068       .  S
Cu58         N66   2.068       .  S
N59          N60   1.321       .  A
N59          C63   1.347       .  A
N60          C61   1.342       .  A
C61          C62   1.383       .  A
C61          H64   1.081       .  S
C62          C63   1.384       .  A
C62         C302   1.471       .  S
C63          H65   1.082       .  S
N66          N67   1.322       .  A
N66          C70   1.342       .  A
N67          C68   1.350       .  A
C68          C69   1.386       .  A
C68          H71   1.082       .  S
C69          C70   1.380       .  A
C69          C76   1.469       .  S
C70          H72   1.082       .  S
N73          N74   1.325       .  A
N73          C77   1.352       .  A
N73         Cu81   2.103       .  S
N74          C75   1.340       .  A
N74         Cu80   2.064       .  S
C75          C76   1.375       .  A
C75          H78   1.083       .  S
C76          C77   1.387       .  A
C77          H79   1.082       .  S
Cu80         N83   2.063       .  S
Cu81         N91   2.101       .  S
Cu82         N84   2.054       .  S
Cu82         N90   2.052       .  S
N83          N84   1.319       .  A
N83          C87   1.346       .  A
N84          C85   1.341       .  A
C85          C86   1.379       .  A
C85          H88   1.082       .  S
C86          C87   1.383       .  A
C86         C982   1.476       .  S
C87          H89   1.082       .  S
N90          N91   1.320       .  A
N90          C94   1.338       .  A
N91          C92   1.352       .  A
C92          C93   1.397       .  A
C92          H95   1.081       .  S
C93          C94   1.382       .  A
C93         C954   1.502       .  S
C94          H96   1.081       .  S
N97          N98   1.324       .  A
N97         C101   1.346       .  A
N97        Cu105   2.077       .  S
N98          C99   1.344       .  A
N98        Cu104   2.073       .  S
C99         C100   1.379       .  A
C99         H102   1.082       .  S
C100        C101   1.380       .  A
C100        C693   1.462       .  S
C101        H103   1.082       .  S
Cu104       N107   2.073       .  S
Cu105       N115   2.076       .  S
Cu106       N108   2.071       .  S
Cu106       N114   2.072       .  S
N107        N108   1.321       .  A
N107        C111   1.347       .  A
N108        C109   1.344       .  A
C109        C110   1.383       .  A
C109        H112   1.082       .  S
C110        C111   1.384       .  A
C110        C254   1.472       .  S
C111        H113   1.082       .  S
N114        N115   1.322       .  A
N114        C118   1.342       .  A
N115        C116   1.349       .  A
C116        C117   1.384       .  A
C116        H119   1.082       .  S
C117        C118   1.382       .  A
C117        C134   1.467       .  S
C118        H120   1.082       .  S
N121        N122   1.318       .  A
N121        C125   1.342       .  A
N121       Cu129   2.053       .  S
N122        C123   1.344       .  A
N122       Cu128   2.056       .  S
C123        C124   1.383       .  A
C123        H126   1.082       .  S
C124        C125   1.381       .  A
C124        C937   1.477       .  S
C125        H127   1.082   1_455  S
Cu128       N131   2.057       .  S
Cu129       N139   2.052       .  S
Cu130       N132   2.108       .  S
Cu130       N138   2.108       .  S
N131        N132   1.326       .  A
N131        C135   1.339       .  A
N132        C133   1.353       .  A
C133        C134   1.388       .  A
C133        H136   1.082       .  S
C134        C135   1.373       .  A
C135        H137   1.083       .  S
N138        N139   1.323       .  A
N138        C142   1.354       .  A
N139        C140   1.337       .  A
C140        C141   1.377       .  A
C140        H143   1.082       .  S
C141        C142   1.394       .  A
C141        C968   1.493       .  S
C142        H144   1.082       .  S
N145        N146   1.323       .  A
N145        C149   1.344       .  A
N145       Cu153   2.068       .  S
N146        C147   1.345       .  A
N146       Cu152   2.072       .  S
C147        C148   1.380       .  A
C147        H150   1.082       .  S
C148        C149   1.379       .  A
C148        C741   1.462       .  S
C149        H151   1.081       .  S
Cu152       N155   2.073   1_565  S
Cu153       N163   2.068       .  S
Cu154       N156   2.069   1_565  S
Cu154       N162   2.069       .  S
N155        N156   1.322       .  A
N155        C159   1.347       .  A
N156        C157   1.343       .  A
C157        C158   1.382       .  A
C157        H160   1.082       .  S
C158        C159   1.383       .  A
C158        C206   1.469       .  S
C159        H161   1.082       .  S
N162        N163   1.321       .  A
N162        C166   1.344       .  A
N163        C164   1.345       .  A
C164        C165   1.381       .  A
C164        H167   1.082       .  S
C165        C166   1.381       .  A
C165        C182   1.461       .  S
C166        H168   1.082       .  S
N169        N170   1.322       .  A
N169        C173   1.343       .  A
N169       Cu177   2.067       .  S
N170        C171   1.347       .  A
N170       Cu176   2.085       .  S
C171        C172   1.389       .  A
C171        H174   1.081       .  S
C172        C173   1.384       .  A
C172        C951   1.495       .  S
C173        H175   1.081       .  S
Cu176       N179   2.085       .  S
Cu177       N187   2.066       .  S
Cu178       N180   2.062       .  S
Cu178       N186   2.061       .  S
N179        N180   1.324       .  A
N179        C183   1.348       .  A
N180        C181   1.342       .  A
C181        C182   1.376       .  A
C181        H184   1.083       .  S
C182        C183   1.382       .  A
C183        H185   1.082       .  S
N186        N187   1.321       .  A
N186        C190   1.344       .  A
N187        C188   1.343       .  A
C188        C189   1.383       .  A
C188        H191   1.082       .  S
C189        C190   1.383       .  A
C189        C940   1.482   1_565  S
C190        H192   1.082   1_565  S
N193        N194   1.325       .  A
N193        C197   1.346       .  A
N193       Cu201   2.077       .  S
N194        C195   1.343       .  A
N194       Cu200   2.073   1_556  S
C195        C196   1.378       .  A
C195        H198   1.082       .  S
C196        C197   1.380       .  A
C196        C501   1.463       .  S
C197        H199   1.082       .  S
Cu200       N203   2.072       .  S
Cu201       N211   2.076       .  S
Cu202       N204   2.062       .  S
Cu202       N210   2.062       .  S
N203        N204   1.320       .  A
N203        C207   1.347       .  A
N204        C205   1.342       .  A
C205        C206   1.381       .  A
C205        H208   1.082       .  S
C206        C207   1.385       .  A
C207        H209   1.082       .  S
N210        N211   1.321   1_554  A
N210        C214   1.339       .  A
N211        C212   1.350       .  A
C212        C213   1.385       .  A
C212        H215   1.081       .  S
C213        C214   1.380   1_556  A
C213        C230   1.467       .  S
C214        H216   1.082       .  S
N217        N218   1.318       .  A
N217        C221   1.345   1_556  A
N217       Cu225   2.073       .  S
N218        C219   1.342       .  A
N218       Cu224   2.051       .  S
C219        C220   1.384   1_556  A
C219        H222   1.082       .  S
C220        C221   1.389       .  A
C220        C926   1.492       .  S
C221        H223   1.081   1_655  S
Cu224       N227   2.051       .  S
Cu225       N235   2.075       .  S
Cu226       N228   2.089       .  S
Cu226       N234   2.092       .  S
N227        N228   1.322       .  A
N227        C231   1.337       .  A
N228        C229   1.352       .  A
C229        C230   1.387       .  A
C229        H232   1.082       .  S
C230        C231   1.375       .  A
C231        H233   1.082       .  S
N234        N235   1.324       .  A
N234        C238   1.348       .  A
N235        C236   1.343       .  A
C236        C237   1.383       .  A
C236        H239   1.081   1_655  S
C237        C238   1.389       .  A
C237        C909   1.496       .  S
C238        H240   1.081       .  S
N241        N242   1.323   1_554  A
N241        C245   1.343       .  A
N241       Cu249   2.065       .  S
N242        C243   1.346       .  A
N242       Cu248   2.078       .  S
C243        C244   1.382   1_556  A
C243        H246   1.082       .  S
C244        C245   1.378       .  A
C244        C549   1.463       .  S
C245        H247   1.082       .  S
Cu248       N251   2.078       .  S
Cu249       N259   2.064       .  S
Cu250       N252   2.073       .  S
Cu250       N258   2.073       .  S
N251        N252   1.323       .  A
N251        C255   1.347   1_565  A
N252        C253   1.344   1_565  A
C253        C254   1.382       .  A
C253        H256   1.082       .  S
C254        C255   1.384       .  A
C255        H257   1.082       .  S
N258        N259   1.321   1_556  A
N258        C262   1.343       .  A
N259        C260   1.346       .  A
C260        C261   1.381       .  A
C260        H263   1.082       .  S
C261        C262   1.382   1_554  A
C261        C278   1.463       .  S
C262        H264   1.082       .  S
N265        N266   1.317       .  A
N265        C269   1.342       .  A
N265       Cu273   2.064       .  S
N266        C267   1.344       .  A
N266       Cu272   2.060       .  S
C267        C268   1.389   1_565  A
C267        H270   1.081   1_565  S
C268        C269   1.388   1_545  A
C268        C923   1.496       .  S
C269        H271   1.081       .  S
Cu272       N275   2.063       .  S
Cu273       N283   2.064       .  S
Cu274       N276   2.092       .  S
Cu274       N282   2.092       .  S
N275        N276   1.325       .  A
N275        C279   1.341       .  A
N276        C277   1.349       .  A
C277        C278   1.384       .  A
C277        H280   1.082       .  S
C278        C279   1.375       .  A
C279        H281   1.083       .  S
N282        N283   1.323       .  A
N282        C286   1.350       .  A
N283        C284   1.341       .  A
C284        C285   1.379       .  A
C284        H287   1.082       .  S
C285        C286   1.388       .  A
C285        C895   1.485       .  S
C286        H288   1.082       .  S
N289        N290   1.320       .  A
N289        C293   1.349       .  A
N289       Cu297   2.072       .  S
N290        C291   1.339       .  A
N290       Cu296   2.060       .  S
C291        C292   1.380       .  A
C291        H294   1.082       .  S
C292        C293   1.385       .  A
C292        C326   1.464       .  S
C293        H295   1.082       .  S
Cu296       N299   2.060   1_556  S
Cu297       N307   2.074       .  S
Cu298       N300   2.080   1_556  S
Cu298       N306   2.080       .  S
N299        N300   1.321       .  A
N299        C303   1.341       .  A
N300        C301   1.348       .  A
C301        C302   1.386       .  A
C301        H304   1.082       .  S
C302        C303   1.381       .  A
C303        H305   1.082       .  S
N306        N307   1.325       .  A
N306        C310   1.346       .  A
N307        C308   1.344       .  A
C308        C309   1.378       .  A
C308        H311   1.082       .  S
C309        C310   1.380       .  A
C309        C405   1.462       .  S
C310        H312   1.082       .  S
N313        N314   1.318       .  A
N313        C317   1.348       .  A
N313       Cu321   2.083       .  S
N314        C315   1.339       .  A
N314       Cu320   2.042       .  S
C315        C316   1.382       .  A
C315        H318   1.082       .  S
C316        C317   1.393       .  A
C316        C881   1.494       .  S
C317        H319   1.081       .  S
Cu320       N323   2.042       .  S
Cu321       N331   2.083       .  S
Cu322       N324   2.088       .  S
Cu322       N330   2.092       .  S
N323        N324   1.320       .  A
N323        C327   1.336       .  A
N324        C325   1.351       .  A
C325        C326   1.388       .  A
C325        H328   1.082       .  S
C326        C327   1.374       .  A
C327        H329   1.083       .  S
N330        N331   1.324       .  A
N330        C334   1.347       .  A
N331        C332   1.344       .  A
C332        C333   1.387       .  A
C332        H335   1.081       .  S
C333        C334   1.390       .  A
C333        C912   1.502       .  S
C334        H336   1.082       .  S
N337        N338   1.321       .  A
N337        C341   1.352       .  A
N337       Cu345   2.081       .  S
N338        C339   1.337       .  A
N338       Cu344   2.058       .  S
C339        C340   1.379       .  A
C339        H342   1.082       .  S
C340        C341   1.388       .  A
C340        C374   1.470       .  S
C341        H343   1.082       .  S
Cu344       N347   2.058       .  S
Cu345       N355   2.083       .  S
Cu346       N348   2.078       .  S
Cu346       N354   2.079       .  S
N347        N348   1.319       .  A
N347        C351   1.342       .  A
N348        C349   1.348       .  A
C349        C350   1.387       .  A
C349        H352   1.082       .  S
C350        C351   1.381       .  A
C351        H353   1.082       .  S
N354        N355   1.326       .  A
N354        C358   1.344       .  A
N355        C356   1.347       .  A
C356        C357   1.380       .  A
C356        H359   1.082   1_556  S
C357        C358   1.379       .  A
C357        C453   1.464   1_556  S
C358        H360   1.082       .  S
N361        N362   1.318       .  A
N361        C365   1.346       .  A
N361       Cu369   2.075       .  S
N362        C363   1.342       .  A
N362       Cu368   2.047       .  S
C363        C364   1.382       .  A
C363        H366   1.082       .  S
C364        C365   1.389       .  A
C364        C884   1.488       .  S
C365        H367   1.081   1_655  S
Cu368       N371   2.046       .  S
Cu369       N379   2.076   1_556  S
Cu370       N372   2.096       .  S
Cu370       N378   2.098   1_556  S
N371        N372   1.322       .  A
N371        C375   1.335       .  A
N372        C373   1.354       .  A
C373        C374   1.390       .  A
C373        H376   1.082       .  S
C374        C375   1.375       .  A
C375        H377   1.082       .  S
N378        N379   1.326       .  A
N378        C382   1.350       .  A
N379        C380   1.343       .  A
C380        C381   1.379       .  A
C380        H383   1.082   1_655  S
C381        C382   1.387       .  A
C381        C898   1.488       .  S
C382        H384   1.082       .  S
N385        N386   1.322       .  A
N385        C389   1.348       .  A
N385       Cu393   2.071       .  S
N386        C387   1.343       .  A
N386       Cu392   2.080       .  S
C387        C388   1.383       .  A
C387        H390   1.082       .  S
C388        C389   1.382       .  A
C388        C412   1.468       .  S
C389        H391   1.082       .  S
Cu392       N395   2.080       .  S
Cu393       N403   2.072       .  S
Cu394       N396   2.073       .  S
Cu394       N402   2.073       .  S
N395        N396   1.322       .  A
N395        C399   1.344       .  A
N396        C397   1.347       .  A
C397        C398   1.383       .  A
C397        H400   1.082       .  S
C398        C399   1.384       .  A
C398        C590   1.473       .  S
C399        H401   1.082       .  S
N402        N403   1.323       .  A
N402        C406   1.344       .  A
N403        C404   1.345       .  A
C404        C405   1.380       .  A
C404        H407   1.082       .  S
C405        C406   1.380       .  A
C406        H408   1.082       .  S
N409        N410   1.325       .  A
N409        C413   1.352       .  A
N409       Cu417   2.110       .  S
N410        C411   1.339       .  A
N410       Cu416   2.056       .  S
C411        C412   1.373       .  A
C411        H414   1.083       .  S
C412        C413   1.388       .  A
C413        H415   1.082       .  S
Cu416       N419   2.055       .  S
Cu417       N427   2.109       .  S
Cu418       N420   2.049       .  S
Cu418       N426   2.049       .  S
N419        N420   1.317       .  A
N419        C423   1.344       .  A
N420        C421   1.340       .  A
C421        C422   1.382       .  A
C421        H424   1.082       .  S
C422        C423   1.385       .  A
C422        C867   1.481       .  S
C423        H425   1.082       .  S
N426        N427   1.324       .  A
N426        C430   1.339       .  A
N427        C428   1.353       .  A
C428        C429   1.391       .  A
C428        H431   1.082       .  S
C429        C430   1.372       .  A
C429        C853   1.482       .  S
C430        H432   1.082       .  S
N433        N434   1.323       .  A
N433        C437   1.348       .  A
N433       Cu441   2.082       .  S
N434        C435   1.345       .  A
N434       Cu440   2.079       .  S
C435        C436   1.383       .  A
C435        H438   1.082       .  S
C436        C437   1.385       .  A
C436        C638   1.475       .  S
C437        H439   1.082       .  S
Cu440       N443   2.078       .  S
Cu441       N451   2.081       .  S
Cu442       N444   2.067       .  S
Cu442       N450   2.067       .  S
N443        N444   1.321       .  A
N443        C447   1.346       .  A
N444        C445   1.345       .  A
C445        C446   1.381       .  A
C445        H448   1.082       .  S
C446        C447   1.383       .  A
C446        C470   1.464       .  S
C447        H449   1.082       .  S
N450        N451   1.323       .  A
N450        C454   1.343       .  A
N451        C452   1.347       .  A
C452        C453   1.383       .  A
C452        H455   1.082       .  S
C453        C454   1.379       .  A
C454        H456   1.082   1_554  S
N457        N458   1.318       .  A
N457        C461   1.341       .  A
N457       Cu465   2.053       .  S
N458        C459   1.343       .  A
N458       Cu464   2.060       .  S
C459        C460   1.386       .  A
C459        H462   1.082       .  S
C460        C461   1.383       .  A
C460        C870   1.487       .  S
C461        H463   1.082       .  S
Cu464       N467   2.062       .  S
Cu465       N475   2.052       .  S
Cu466       N468   2.098       .  S
Cu466       N474   2.098   1_554  S
N467        N468   1.325   1_556  A
N467        C471   1.342   1_556  A
N468        C469   1.350       .  A
C469        C470   1.385       .  A
C469        H472   1.082       .  S
C470        C471   1.375       .  A
C471        H473   1.083   1_554  S
N474        N475   1.323       .  A
N474        C478   1.350   1_556  A
N475        C476   1.341       .  A
C476        C477   1.375       .  A
C476        H479   1.081       .  S
C477        C478   1.388   1_556  A
C477        C839   1.482       .  S
C478        H480   1.081       .  S
N481        N482   1.323       .  A
N481        C485   1.348       .  A
N481       Cu489   2.081       .  S
N482        C483   1.344       .  A
N482       Cu488   2.077       .  S
C483        C484   1.382       .  A
C483        H486   1.081       .  S
C484        C485   1.385       .  A
C484        C734   1.474       .  S
C485        H487   1.082       .  S
Cu488       N491   2.077       .  S
Cu489       N499   2.080       .  S
Cu490       N492   2.066       .  S
Cu490       N498   2.066       .  S
N491        N492   1.321       .  A
N491        C495   1.345       .  A
N492        C493   1.345       .  A
C493        C494   1.381       .  A
C493        H496   1.082       .  S
C494        C495   1.383       .  A
C494        C518   1.464       .  S
C495        H497   1.082       .  S
N498        N499   1.323       .  A
N498        C502   1.343       .  A
N499        C500   1.347       .  A
C500        C501   1.382       .  A
C500        H503   1.082       .  S
C501        C502   1.378       .  A
C502        H504   1.082       .  S
N505        N506   1.319       .  A
N505        C509   1.341       .  A
N505       Cu513   2.052       .  S
N506        C507   1.343       .  A
N506       Cu512   2.059       .  S
C507        C508   1.385       .  A
C507        H510   1.082       .  S
C508        C509   1.382       .  A
C508        C828   1.483   1_556  S
C509        H511   1.082   1_556  S
Cu512       N515   2.060       .  S
Cu513       N523   2.052       .  S
Cu514       N516   2.100       .  S
Cu514       N522   2.100       .  S
N515        N516   1.325       .  A
N515        C519   1.342       .  A
N516        C517   1.350       .  A
C517        C518   1.385       .  A
C517        H520   1.082       .  S
C518        C519   1.375       .  A
C519        H521   1.083       .  S
N522        N523   1.322       .  A
N522        C526   1.350       .  A
N523        C524   1.340       .  A
C524        C525   1.378       .  A
C524        H527   1.082       .  S
C525        C526   1.392       .  A
C525        C856   1.491       .  S
C526        H528   1.082       .  S
N529        N530   1.321       .  A
N529        C533   1.348       .  A
N529       Cu537   2.069       .  S
N530        C531   1.342       .  A
N530       Cu536   2.070       .  S
C531        C532   1.381       .  A
C531        H534   1.082       .  S
C532        C533   1.383       .  A
C532        C556   1.465       .  S
C533        H535   1.082       .  S
Cu536       N539   2.070   1_565  S
Cu537       N547   2.070       .  S
Cu538       N540   2.079   1_565  S
Cu538       N546   2.079       .  S
N539        N540   1.322       .  A
N539        C543   1.343       .  A
N540        C541   1.348       .  A
C541        C542   1.386       .  A
C541        H544   1.082       .  S
C542        C543   1.382       .  A
C542        C686   1.473       .  S
C543        H545   1.081       .  S
N546        N547   1.324       .  A
N546        C550   1.345       .  A
N547        C548   1.345       .  A
C548        C549   1.379       .  A
C548        H551   1.082       .  S
C549        C550   1.381       .  A
C550        H552   1.082       .  S
N553        N554   1.326       .  A
N553        C557   1.351       .  A
N553       Cu561   2.104       .  S
N554        C555   1.339       .  A
N554       Cu560   2.059       .  S
C555        C556   1.373       .  A
C555        H558   1.083       .  S
C556        C557   1.386       .  A
C557        H559   1.082       .  S
Cu560       N563   2.057       .  S
Cu561       N571   2.103       .  S
Cu562       N564   2.046       .  S
Cu562       N570   2.046       .  S
N563        N564   1.317       .  A
N563        C567   1.345   1_565  A
N564        C565   1.339       .  A
C565        C566   1.380   1_565  A
C565        H568   1.082       .  S
C566        C567   1.385       .  A
C566        C825   1.479       .  S
C567        H569   1.082       .  S
N570        N571   1.322       .  A
N570        C574   1.338       .  A
N571        C572   1.353       .  A
C572        C573   1.391       .  A
C572        H575   1.082       .  S
C573        C574   1.374       .  A
C573        C842   1.484       .  S
C574        H576   1.082       .  S
N577        N578   1.320       .  A
N577        C581   1.349       .  A
N577       Cu585   2.075       .  S
N578        C579   1.340       .  A
N578       Cu584   2.064       .  S
C579        C580   1.381       .  A
C579        H582   1.082       .  S
C580        C581   1.385       .  A
C580        C614   1.466       .  S
C581        H583   1.082       .  S
Cu584       N587   2.064       .  S
Cu585       N595   2.076       .  S
Cu586       N588   2.085       .  S
Cu586       N594   2.086       .  S
N587        N588   1.322       .  A
N587        C591   1.343       .  A
N588        C589   1.349       .  A
C589        C590   1.387       .  A
C589        H592   1.082       .  S
C590        C591   1.381       .  A
C591        H593   1.081       .  S
N594        N595   1.325       .  A
N594        C598   1.347       .  A
N595        C596   1.344       .  A
C596        C597   1.379       .  A
C596        H599   1.082       .  S
C597        C598   1.382       .  A
C598        H600   1.082       .  S
N601        N602   1.317       .  A
N601        C605   1.344       .  A
N601       Cu609   2.067       .  S
N602        C603   1.339       .  A
N602       Cu608   2.041       .  S
C603        C604   1.382       .  A
C603        H606   1.082       .  S
C604        C605   1.389       .  A
C604        C811   1.488       .  S
C605        H607   1.081       .  S
Cu608       N611   2.042       .  S
Cu609       N619   2.069       .  S
Cu610       N612   2.100       .  S
Cu610       N618   2.103       .  S
N611        N612   1.322       .  A
N611        C615   1.337       .  A
N612        C613   1.353       .  A
C613        C614   1.389       .  A
C613        H616   1.082       .  S
C614        C615   1.373       .  A
C615        H617   1.083       .  S
N618        N619   1.325       .  A
N618        C622   1.350       .  A
N619        C620   1.343       .  A
C620        C621   1.380       .  A
C620        H623   1.082       .  S
C621        C622   1.389       .  A
C621        C797   1.493       .  S
C622        H624   1.082       .  S
N625        N626   1.321       .  A
N625        C629   1.352       .  A
N625       Cu633   2.076       .  S
N626        C627   1.339       .  A
N626       Cu632   2.074       .  S
C627        C628   1.383       .  A
C627        H630   1.082       .  S
C628        C629   1.386       .  A
C628        C662   1.472       .  S
C629        H631   1.081       .  S
Cu632       N635   2.073       .  S
Cu633       N643   2.077       .  S
Cu634       N636   2.079       .  S
Cu634       N642   2.080       .  S
N635        N636   1.321       .  A
N635        C639   1.345       .  A
N636        C637   1.348       .  A
C637        C638   1.386       .  A
C637        H640   1.082       .  S
C638        C639   1.384       .  A
C639        H641   1.082       .  S
N642        N643   1.325       .  A
N642        C646   1.346       .  A
N643        C644   1.345       .  A
C644        C645   1.379       .  A
C644        H647   1.082       .  S
C645        C646   1.380       .  A
C646        H648   1.082       .  S
N649        N650   1.316       .  A
N649        C653   1.345       .  A
N649       Cu657   2.063       .  S
N650        C651   1.339       .  A
N650       Cu656   2.034       .  S
C651        C652   1.379       .  A
C651        H654   1.082       .  S
C652        C653   1.388       .  A
C652        C814   1.480       .  S
C653        H655   1.082       .  S
Cu656       N659   2.033       .  S
Cu657       N667   2.065       .  S
Cu658       N660   2.115       .  S
Cu658       N666   2.119       .  S
N659        N660   1.322       .  A
N659        C663   1.334       .  A
N660        C661   1.357       .  A
C661        C662   1.395       .  A
C661        H664   1.082       .  S
C662        C663   1.371       .  A
C663        H665   1.082       .  S
N666        N667   1.327       .  A
N666        C670   1.353       .  A
N667        C668   1.341       .  A
C668        C669   1.376       .  A
C668        H671   1.082       .  S
C669        C670   1.391       .  A
C669        C786   1.491       .  S
C670        H672   1.082       .  S
N673        N674   1.321       .  A
N673        C677   1.349       .  A
N673       Cu681   2.073       .  S
N674        C675   1.341       .  A
N674       Cu680   2.072       .  S
C675        C676   1.383       .  A
C675        H678   1.082       .  S
C676        C677   1.385       .  A
C676        C710   1.467       .  S
C677        H679   1.082       .  S
Cu680       N683   2.072       .  S
Cu681       N691   2.074       .  S
Cu682       N684   2.079       .  S
Cu682       N690   2.080       .  S
N683        N684   1.322       .  A
N683        C687   1.343       .  A
N684        C685   1.348       .  A
C685        C686   1.386       .  A
C685        H688   1.082       .  S
C686        C687   1.382       .  A
C687        H689   1.082       .  S
N690        N691   1.325       .  A
N690        C694   1.346       .  A
N691        C692   1.344       .  A
C692        C693   1.378       .  A
C692        H695   1.082       .  S
C693        C694   1.380       .  A
C694        H696   1.082       .  S
N697        N698   1.318       .  A
N697        C701   1.344       .  A
N697       Cu705   2.060       .  S
N698        C699   1.341       .  A
N698       Cu704   2.044       .  S
C699        C700   1.379       .  A
C699        H702   1.082       .  S
C700        C701   1.382       .  A
C700        C769   1.473       .  S
C701        H703   1.082       .  S
Cu704       N707   2.044       .  S
Cu705       N715   2.061       .  S
Cu706       N708   2.111       .  S
Cu706       N714   2.113       .  S
N707        N708   1.324       .  A
N707        C711   1.337       .  A
N708        C709   1.354       .  A
C709        C710   1.390       .  A
C709        H712   1.082       .  S
C710        C711   1.372       .  A
C711        H713   1.083       .  S
N714        N715   1.324       .  A
N714        C718   1.353       .  A
N715        C716   1.340       .  A
C716        C717   1.379       .  A
C716        H719   1.082       .  S
C717        C718   1.395       .  A
C717        C783   1.497       .  S
C718        H720   1.082       .  S
N721        N722   1.321       .  A
N721        C725   1.350       .  A
N721       Cu729   2.068       .  S
N722        C723   1.339       .  A
N722       Cu728   2.071       .  S
C723        C724   1.383       .  A
C723        H726   1.082       .  S
C724        C725   1.384       .  A
C724        C758   1.469       .  S
C725        H727   1.082       .  S
Cu728       N731   2.070   1_565  S
Cu729       N739   2.070       .  S
Cu730       N732   2.079   1_565  S
Cu730       N738   2.080       .  S
N731        N732   1.321       .  A
N731        C735   1.343       .  A
N732        C733   1.348       .  A
C733        C734   1.386       .  A
C733        H736   1.082       .  S
C734        C735   1.383       .  A
C735        H737   1.082       .  S
N738        N739   1.325       .  A
N738        C742   1.345       .  A
N739        C740   1.344       .  A
C740        C741   1.378       .  A
C740        H743   1.082       .  S
C741        C742   1.380       .  A
C742        H744   1.082       .  S
N745        N746   1.317       .  A
N745        C749   1.345       .  A
N745       Cu753   2.061       .  S
N746        C747   1.340   1_565  A
N746       Cu752   2.037       .  S
C747        C748   1.378       .  A
C747        H750   1.082       .  S
C748        C749   1.383   1_545  A
C748        C772   1.472       .  S
C749        H751   1.081       .  S
Cu752       N755   2.037       .  S
Cu753       N763   2.063       .  S
Cu754       N756   2.111       .  S
Cu754       N762   2.113       .  S
N755        N756   1.323       .  A
N755        C759   1.334       .  A
N756        C757   1.355       .  A
C757        C758   1.392       .  A
C757        H760   1.082       .  S
C758        C759   1.371       .  A
C759        H761   1.083       .  S
N762        N763   1.325       .  A
N762        C766   1.353       .  A
N763        C764   1.339       .  A
C764        C765   1.378       .  A
C764        H767   1.082       .  S
C765        C766   1.394       .  A
C765        C800   1.496       .  S
C766        H768   1.082       .  S
C769        C770   1.409       .  A
C769        C774   1.412       .  A
C770        C771   1.407       .  A
C770        C775   1.450       .  S
C771        C772   1.411       .  A
C771        C778   1.451       .  S
C772        C773   1.409       .  A
C773        C774   1.408       .  A
C773        C776   1.451       .  S
C774        C777   1.451       .  S
C775        N782   1.157       .  T
C776        N781   1.157       .  T
C777        N779   1.157       .  T
C778        N780   1.157   1_545  T
C783        C784   1.415       .  A
C783        C788   1.419       .  A
C784        C785   1.414       .  A
C784        C789   1.450       .  S
C785        C786   1.416       .  A
C785        C792   1.452       .  S
C786        C787   1.410       .  A
C787        C788   1.413       .  A
C787        C790   1.451       .  S
C788        C791   1.451       .  S
C789        N796   1.157       .  T
C790        N795   1.157       .  T
C791        N793   1.157       .  T
C792        N794   1.157       .  T
C797        C798   1.411       .  A
C797        C802   1.418       .  A
C798        C799   1.412       .  A
C798        C803   1.451       .  S
C799        C800   1.418       .  A
C799        C806   1.452       .  S
C800        C801   1.414       .  A
C801        C802   1.415       .  A
C801        C804   1.451       .  S
C802        C805   1.452       .  S
C803        N810   1.157       .  T
C804        N809   1.157       .  T
C805        N807   1.158       .  T
C806        N808   1.157       .  T
C811        C812   1.416       .  A
C811        C816   1.417       .  A
C812        C813   1.409       .  A
C812        C817   1.452       .  S
C813        C814   1.412       .  A
C813        C820   1.452       .  S
C814        C815   1.412       .  A
C815        C816   1.409       .  A
C815        C818   1.453       .  S
C816        C819   1.452       .  S
C817        N824   1.157       .  T
C818        N823   1.157       .  T
C819        N821   1.158       .  T
C820        N822   1.157       .  T
C825        C826   1.412   1_554  A
C825        C830   1.411       .  A
C826        C827   1.407       .  A
C826        C831   1.453       .  S
C827        C828   1.414   1_556  A
C827        C834   1.452       .  S
C828        C829   1.414       .  A
C829        C830   1.409       .  A
C829        C832   1.451       .  S
C830        C833   1.451       .  S
C831        N838   1.157       .  T
C832        N837   1.157       .  T
C833        N835   1.157       .  T
C834        N836   1.157       .  T
C839        C840   1.410       .  A
C839        C844   1.412   1_556  A
C840        C841   1.410       .  A
C840        C845   1.451       .  S
C841        C842   1.414   1_556  A
C841        C848   1.452       .  S
C842        C843   1.411       .  A
C843        C844   1.413       .  A
C843        C846   1.450       .  S
C844        C847   1.450       .  S
C845        N852   1.157       .  T
C846        N851   1.157       .  T
C847        N849   1.157       .  T
C848        N850   1.157       .  T
C853        C854   1.410       .  A
C853        C858   1.410       .  A
C854        C855   1.413       .  A
C854        C859   1.450       .  S
C855        C856   1.415       .  A
C855        C862   1.450       .  S
C856        C857   1.416       .  A
C857        C858   1.411       .  A
C857        C860   1.451       .  S
C858        C861   1.451       .  S
C859        N866   1.157       .  T
C860        N865   1.157   1_556  T
C861        N863   1.157       .  T
C862        N864   1.157       .  T
C867        C868   1.411       .  A
C867        C872   1.413       .  A
C868        C869   1.409       .  A
C868        C873   1.451       .  S
C869        C870   1.416       .  A
C869        C876   1.452       .  S
C870        C871   1.416       .  A
C871        C872   1.409       .  A
C871        C874   1.452       .  S
C872        C875   1.453       .  S
C873        N880   1.157       .  T
C874        N879   1.157       .  T
C875        N877   1.157       .  T
C876        N878   1.157       .  T
C881        C882   1.418       .  A
C881        C886   1.417   1_455  A
C882        C883   1.410       .  A
C882        C887   1.452       .  S
C883        C884   1.412   1_455  A
C883        C890   1.452       .  S
C884        C885   1.414       .  A
C885        C886   1.412       .  A
C885        C888   1.452       .  S
C886        C889   1.451       .  S
C887        N894   1.157       .  T
C888        N893   1.157       .  T
C889        N891   1.158       .  T
C890        N892   1.157       .  T
C895        C896   1.413       .  A
C895        C900   1.410       .  A
C896        C897   1.411   1_455  A
C896        C901   1.452       .  S
C897        C898   1.413       .  A
C897        C904   1.450   1_554  S
C898        C899   1.415   1_655  A
C899        C900   1.413       .  A
C899        C902   1.451       .  S
C900        C903   1.450       .  S
C901        N908   1.157   1_554  T
C902        N907   1.157       .  T
C903        N905   1.157       .  T
C904        N906   1.157       .  T
C909        C910   1.416   1_655  A
C909        C914   1.413       .  A
C910        C911   1.414       .  A
C910        C915   1.452       .  S
C911        C912   1.417       .  A
C911        C918   1.451       .  S
C912        C913   1.421   1_455  A
C913        C914   1.414       .  A
C913        C916   1.451       .  S
C914        C917   1.452       .  S
C915        N922   1.158       .  T
C916        N921   1.158       .  T
C917        N919   1.157       .  T
C918        N920   1.157       .  T
C923        C924   1.419       .  A
C923        C928   1.416       .  A
C924        C925   1.412       .  A
C924        C929   1.451       .  S
C925        C926   1.414   1_455  A
C925        C932   1.452   1_554  S
C926        C927   1.415       .  A
C927        C928   1.411   1_655  A
C927        C930   1.452       .  S
C928        C931   1.452   1_455  S
C929        N936   1.158   1_554  T
C930        N935   1.157       .  T
C931        N933   1.157   1_545  T
C932        N934   1.157       .  T
C937        C938   1.410       .  A
C937        C942   1.411   1_455  A
C938        C939   1.409   1_455  A
C938        C943   1.451       .  S
C939        C940   1.413       .  A
C939        C946   1.451   1_545  S
C940        C941   1.414       .  A
C941        C942   1.409       .  A
C941        C944   1.451       .  S
C942        C945   1.452   1_655  S
C943        N950   1.157       .  T
C944        N949   1.157       .  T
C945        N947   1.157       .  T
C946        N948   1.157       .  T
C951        C952   1.412       .  A
C951        C956   1.417   1_655  A
C952        C953   1.411       .  A
C952        C957   1.452       .  S
C953        C954   1.421   1_655  A
C953        C960   1.452       .  S
C954        C955   1.416       .  A
C955        C956   1.415       .  A
C955        C958   1.450       .  S
C956        C959   1.452       .  S
C957        N964   1.157       .  T
C958        N963   1.157       .  T
C959        N961   1.157       .  T
C960        N962   1.158       .  T
C965        C966   1.408       .  A
C965        C970   1.412   1_655  A
C966        C967   1.410       .  A
C966        C971   1.451       .  S
C967        C968   1.419   1_655  A
C967        C974   1.452       .  S
C968        C969   1.414       .  A
C969        C970   1.415       .  A
C969        C972   1.450       .  S
C970        C973   1.451       .  S
C971        N978   1.157       .  T
C972        N977   1.157       .  T
C973        N975   1.157       .  T
C974        N976   1.157       .  T
C979        C980   1.414       .  A
C979        C984   1.416   1_655  A
C980        C981   1.409       .  A
C980        C985   1.451       .  S
C981        C982   1.410   1_655  A
C981        C988   1.451       .  S
C982        C983   1.409       .  A
C983        C984   1.408       .  A
C983        C986   1.451       .  S
C984        C987   1.451       .  S
C985        N992   1.157       .  T
C986        N991   1.157       .  T
C987        N989   1.157       .  T
C988        N990   1.157       .  T
