geometry optimzed in LAMMPS
_audit_creation_date              2020-11-30 
_audit_creation_method            'lammps2cif' 
_symmetry_space_group_name_H-M    'P1' 
_symmetry_Int_Tables_number       1 
_symmetry_cell_setting            triclinic 
loop_ 
_symmetry_equiv_pos_as_xyz 
  x,y,z 
_cell_length_a                    70.53831628 
_cell_length_b                    37.95527627672781 
_cell_length_c                    39.96649846696886 
_cell_angle_alpha                 90.13711294499404 
_cell_angle_beta                  89.81185384213138 
_cell_angle_gamma                 89.92269545225155 
loop_ 
_atom_site_label 
_atom_site_type_symbol 
_atom_site_fract_x 
_atom_site_fract_y 
_atom_site_fract_z 
_atom_site_charge 
C1          C  0.03338328  0.05480645  0.17748108     0.82300
N2          N  0.04002035  0.07111967  0.20556401    -0.76000
C3          C  0.05669582  0.08923335  0.20435659     0.84800
N4          N  0.06629769  0.09174670  0.17496717    -0.75900
C5          C  0.05961507  0.07645034  0.14667562     0.84900
N6          N  0.04321818  0.05794329  0.14835998    -0.77700
Zn7        Zn  0.85231634  0.84268808  0.11589923     1.49700
Zn8        Zn  0.88992000  0.80768746  0.08473407     1.49400
Zn9        Zn  0.88722191  0.89153820  0.09236970     1.49100
Zn10       Zn  0.89184120  0.84350511  0.15665764     1.49500
O11         O  0.88014409  0.84632550  0.11245638    -1.82000
O12         O  0.84225716  0.80155135  0.08734125    -0.72700
O13         O  0.90556899  0.82633026  0.04669644    -0.72500
O14         O  0.86425768  0.92243289  0.08491834    -0.72000
O15         O  0.86850649  0.77947733  0.06496173    -0.72700
O16         O  0.84004113  0.88805645  0.09906187    -0.72300
O17         O  0.90093421  0.88403419  0.04853786    -0.72900
O18         O  0.91072069  0.88332096  0.16451141    -0.72300
O19         O  0.90631193  0.77394986  0.11097671    -0.73000
O20         O  0.90621198  0.91776774  0.12056212    -0.72400
O21         O  0.90655600  0.79829529  0.16143041    -0.72900
O22         O  0.87158617  0.84279019  0.19247490    -0.72800
O23         O  0.84446820  0.83651382  0.16496298    -0.72600
C24         C  0.85053565  0.77927897  0.06816568     0.79200
C25         C  0.90822379  0.85695104  0.03466503     0.79700
C26         C  0.84648594  0.91728801  0.08810280     0.78700
C27         C  0.91484267  0.91078718  0.14766918     0.79000
C28         C  0.91137793  0.77361137  0.14150946     0.80200
C29         C  0.85365478  0.83840159  0.19243865     0.79200
N30         N  0.77681225  0.59743424  0.93683517    -0.01400
C31         C  0.76514633  0.57157657  0.94828176     0.01200
C32         C  0.75771878  0.55240766  0.92204446    -0.21700
C33         C  0.76501384  0.56656619  0.89335832    -0.21900
C34         C  0.77668794  0.59404396  0.90288747     0.01100
H35         H  0.74819770  0.53022788  0.92372160     0.14900
H36         H  0.76248178  0.55714943  0.86818069     0.14900
C37         C  0.00386775  0.55512040  0.29227247     0.82300
N38         N  0.99749952  0.57231582  0.26452448    -0.76000
C39         C  0.98014390  0.58804268  0.26496146     0.84800
N40         N  0.96958169  0.58728223  0.29330375    -0.75900
C41         C  0.97578117  0.57091573  0.32124302     0.84900
N42         N  0.99295869  0.55465664  0.32050482    -0.77700
Zn43       Zn  0.15008540  0.31185535  0.37922442     1.49700
Zn44       Zn  0.15428409  0.39509968  0.36615822     1.49400
Zn45       Zn  0.18648813  0.34165097  0.34010572     1.49100
Zn46       Zn  0.14478319  0.34422446  0.30636633     1.49500
O47         O  0.15909181  0.34802294  0.34796779    -1.82000
O48         O  0.13675434  0.33479726  0.41845699    -0.72700
O49         O  0.17817814  0.42381231  0.36912654    -0.72500
O50         O  0.19719664  0.30051992  0.36771929    -0.72000
O51         O  0.14294985  0.39164314  0.41209872    -0.72700
O52         O  0.17214470  0.28417975  0.39756727    -0.72300
O53         O  0.20089106  0.38586702  0.35477249    -0.72900
O54         O  0.16273719  0.34036805  0.26719997    -0.72300
O55         O  0.13461689  0.42186421  0.34006151    -0.73000
O56         O  0.19117013  0.33364618  0.29010211    -0.72400
O57         O  0.12629979  0.38515937  0.29971327    -0.72900
O58         O  0.12944738  0.29972838  0.30634168    -0.72800
O59         O  0.13232571  0.27649894  0.35683742    -0.72600
C60         C  0.13571444  0.36653703  0.42884776     0.79200
C61         C  0.19562553  0.41622390  0.36510703     0.79700
C62         C  0.18971555  0.28143911  0.39050815     0.78700
C63         C  0.18051367  0.33496458  0.26429615     0.79000
C64         C  0.12407522  0.41423573  0.31532816     0.80200
C65         C  0.12560719  0.27550768  0.32726303     0.79200
N66         N  0.25602984  0.09298544  0.52313543    -0.01400
C67         C  0.26608746  0.06397635  0.51347173     0.01200
C68         C  0.27175276  0.04489734  0.54116240    -0.21700
C69         C  0.26477934  0.06196244  0.56870201    -0.21900
C70         C  0.25507848  0.09102522  0.55713876     0.01100
H71         H  0.27980979  0.02059774  0.54123245     0.14900
H72         H  0.26591951  0.05328822  0.59438372     0.14900
C73         C  0.03248408  0.41781140  0.66948748     0.82300
N74         N  0.04404038  0.42044935  0.64224170    -0.76000
C75         C  0.05987658  0.40038830  0.63922306     0.84800
N76         N  0.06397867  0.37696498  0.66358949    -0.75900
C77         C  0.05279252  0.37387822  0.69097033     0.84900
N78         N  0.03701675  0.39434274  0.69406447    -0.77700
Zn79       Zn  0.88036693  0.56983301  0.59100502     1.49700
Zn80       Zn  0.88315339  0.65450579  0.58576269     1.49400
Zn81       Zn  0.84620278  0.61678336  0.61763140     1.49100
Zn82       Zn  0.88666508  0.61634048  0.65612068     1.49500
O83         O  0.87394927  0.61457967  0.61260885    -1.82000
O84         O  0.89207391  0.57890666  0.54613388    -0.72700
O85         O  0.86111739  0.68547558  0.57217806    -0.72500
O86         O  0.83336602  0.57246636  0.59862508    -0.72000
O87         O  0.89641299  0.63685588  0.54385846    -0.72700
O88         O  0.85758715  0.53835346  0.58377939    -0.72300
O89         O  0.83545438  0.65898023  0.59264360    -0.72900
O90         O  0.86739294  0.61566193  0.69328492    -0.72300
O91         O  0.90160564  0.68562076  0.61120733    -0.73000
O92         O  0.83967512  0.62180320  0.66713169    -0.72400
O93         O  0.90211709  0.66089989  0.66130983    -0.72900
O94         O  0.90531858  0.57628320  0.66174893    -0.72800
O95         O  0.90044738  0.54367548  0.61664371    -0.72600
C96         C  0.89838579  0.60613470  0.53131939     0.79200
C97         C  0.84319937  0.68389692  0.57618550     0.79700
C98         C  0.83981093  0.54358614  0.58662957     0.78700
C99         C  0.84946592  0.61975940  0.69389465     0.79000
C100        C  0.90730056  0.68525753  0.64141732     0.80200
C101        C  0.90944153  0.54971261  0.64361201     0.79200
N102        N  0.77673131  0.86521984  0.43539534    -0.01400
C103        C  0.76283673  0.88833133  0.44434653     0.01200
C104        C  0.75758905  0.90890796  0.41749620    -0.21700
C105        C  0.76862794  0.89862457  0.39101224    -0.21900
C106        C  0.78024643  0.87197751  0.40245892     0.01100
H107        H  0.74719428  0.93002354  0.41752067     0.14900
H108        H  0.76846075  0.90972579  0.36612582     0.14900
C109        C  0.00814065  0.89721629  0.78568769     0.82300
N110        N  0.99868065  0.89610895  0.81539658    -0.76000
C111        C  0.98141287  0.88065945  0.81793153     0.84800
N112        N  0.97364772  0.86629987  0.79015463    -0.75900
C113        C  0.98276318  0.86687298  0.76025361     0.84900
N114        N  0.00016960  0.88228052  0.75796486    -0.77700
Zn115      Zn  0.16556771  0.16287357  0.82627678     1.49700
Zn116      Zn  0.12822613  0.12291261  0.85233346     1.49400
Zn117      Zn  0.16186241  0.07802364  0.81908468     1.49100
Zn118      Zn  0.16684726  0.11407743  0.89116591     1.49500
O119        O  0.15571710  0.11947337  0.84691770    -1.82000
O120        O  0.14369673  0.19515528  0.81322561    -0.72700
O121        O  0.11520319  0.08317345  0.82880467    -0.72500
O122        O  0.17543446  0.09375888  0.77684715    -0.72000
O123        O  0.11824054  0.16788754  0.83289940    -0.72700
O124        O  0.18019305  0.15112417  0.78372754    -0.72300
O125        O  0.13800963  0.04982617  0.80711213    -0.72900
O126        O  0.18332256  0.07114492  0.89291168    -0.72300
O127        O  0.11995244  0.11879107  0.90056636    -0.73000
O128        O  0.17990338  0.04519806  0.84341191    -0.72400
O129        O  0.14693638  0.10798689  0.92666574    -0.72900
O130        O  0.18245203  0.15644296  0.90386422    -0.72800
O131        O  0.18269048  0.19008852  0.85852690    -0.72600
C132        C  0.12578205  0.19374089  0.81764097     0.79200
C133        C  0.12047302  0.05585688  0.81278296     0.79700
C134        C  0.18234635  0.12291702  0.76666530     0.78700
C135        C  0.18706334  0.04615945  0.87263610     0.79000
C136        C  0.12898953  0.11119991  0.92710542     0.80200
C137        C  0.18762569  0.18433875  0.88874124     0.79200
N138        N  0.25686152  0.36621391  0.02475211    -0.01400
C139        C  0.27157770  0.38800183  0.01743977     0.01200
C140        C  0.27687357  0.40690898  0.04544549    -0.21700
C141        C  0.26493659  0.39693547  0.07081934    -0.21900
C142        C  0.25276772  0.37210474  0.05756646     0.01100
H143        H  0.28774597  0.42703106  0.04683808     0.14900
H144        H  0.26481588  0.40725430  0.09607617     0.14900
C145        C  0.50741463  0.57229614  0.16252750     0.82300
N146        N  0.49725738  0.57523523  0.13368776    -0.76000
C147        C  0.48068876  0.59355189  0.13296455     0.84800
N148        N  0.47430395  0.60862285  0.16150938    -0.75900
C149        C  0.48409490  0.60617907  0.19045502     0.84900
N150        N  0.50079163  0.58817226  0.19096572    -0.77700
Zn151      Zn  0.66501612  0.30295954  0.13038943     1.49700
Zn152      Zn  0.66683847  0.34979603  0.06455868     1.49400
Zn153      Zn  0.62789892  0.34241332  0.10427425     1.49100
Zn154      Zn  0.66164825  0.38784711  0.13655634     1.49500
O155        O  0.65543027  0.34599862  0.10910781    -1.82000
O156        O  0.68422222  0.27747682  0.10131583    -0.72700
O157        O  0.64696293  0.35356332  0.02800478    -0.72500
O158        O  0.61768940  0.29688644  0.12290337    -0.72000
O159        O  0.68364054  0.30769933  0.05401158    -0.72700
O160        O  0.64380939  0.26838229  0.13798635    -0.72300
O161        O  0.62012834  0.34590335  0.05590841    -0.72900
O162        O  0.63769194  0.41715555  0.14643360    -0.72300
O163        O  0.68289718  0.39330708  0.06246821    -0.73000
O164        O  0.61475608  0.38239813  0.12757227    -0.72400
O165        O  0.68049647  0.41984215  0.11180846    -0.72900
O166        O  0.67305458  0.37165832  0.18112179    -0.72800
O167        O  0.67609237  0.31363168  0.17602291    -0.72600
C168        C  0.68948868  0.28149697  0.07103340     0.79200
C169        C  0.62894692  0.35106079  0.02851278     0.79700
C170        C  0.62588212  0.26976554  0.13474248     0.78700
C171        C  0.62011895  0.41063312  0.14189197     0.79000
C172        C  0.68721581  0.41852470  0.08209477     0.80200
C173        C  0.67794983  0.34179691  0.19315518     0.79200
N174        N  0.75106211  0.08437835  0.94342404    -0.01400
C175        C  0.76505749  0.06098542  0.95046738     0.01200
C176        C  0.76765740  0.03802558  0.92392992    -0.21700
C177        C  0.75490401  0.04753289  0.89972585    -0.21900
C178        C  0.74496736  0.07605016  0.91222837     0.01100
H179        H  0.77772717  0.01651110  0.92244624     0.14900
H180        H  0.75320996  0.03533951  0.87548056     0.14900
C181        C  0.53188423  0.05783672  0.28936892     0.82300
N182        N  0.54107261  0.05491579  0.31906858    -0.76000
C183        C  0.55898683  0.06697501  0.32252973     0.84800
N184        N  0.56770470  0.08264572  0.29637990    -0.75900
C185        C  0.55877586  0.08655930  0.26660172     0.84900
N186        N  0.54073883  0.07406577  0.26319044    -0.77700
Zn187      Zn  0.38484754  0.90301550  0.35756291     1.49700
Zn188      Zn  0.39206593  0.85401821  0.29492614     1.49400
Zn189      Zn  0.38850167  0.81964207  0.36715148     1.49100
Zn190      Zn  0.35130335  0.85070508  0.33335832     1.49500
O191        O  0.37899462  0.85684209  0.33811599    -1.82000
O192        O  0.40210909  0.93210030  0.32838082    -0.72700
O193        O  0.40932282  0.81143992  0.29283776    -0.72500
O194        O  0.40211050  0.84026623  0.40610944    -0.72000
O195        O  0.40863633  0.89663776  0.28587232    -0.72700
O196        O  0.39870072  0.89809685  0.40137583    -0.72300
O197        O  0.40687475  0.78776938  0.34333254    -0.72900
O198        O  0.34136258  0.80867684  0.36094338    -0.72300
O199        O  0.37274477  0.85051135  0.25827025    -0.73000
O200        O  0.36749395  0.78951908  0.38556014    -0.72400
O201        O  0.34487380  0.84383599  0.28404697    -0.72900
O202        O  0.33757217  0.89505454  0.35003538    -0.72800
O203        O  0.36099699  0.93019717  0.36597221    -0.72600
C204        C  0.41106302  0.92563555  0.30137132     0.79200
C205        C  0.41388569  0.78783710  0.31397578     0.79700
C206        C  0.40490185  0.87130844  0.41701585     0.78700
C207        C  0.34967597  0.78757682  0.38102085     0.79000
C208        C  0.35485358  0.84597071  0.25739796     0.80200
C209        C  0.34337263  0.92419619  0.36236117     0.79200
N210        N  0.28229063  0.59887408  0.51306264    -0.01400
C211        C  0.27010923  0.57301999  0.50348816     0.01200
C212        C  0.26421822  0.55370574  0.53083152    -0.21700
C213        C  0.27296515  0.56790851  0.55824814    -0.21900
C214        C  0.28394801  0.59550113  0.54679937     0.01100
H215        H  0.25458520  0.53147994  0.53074673     0.14900
H216        H  0.27167634  0.55887554  0.58374828     0.14900
C217        C  0.52352548  0.39073331  0.78756739     0.82300
N218        N  0.53431453  0.39012887  0.81590674    -0.76000
C219        C  0.54960009  0.36834928  0.81845774     0.84800
N220        N  0.55388461  0.34704708  0.79233130    -0.75900
C221        C  0.54346227  0.34720263  0.76397344     0.84900
N222        N  0.52829098  0.36919157  0.76144264    -0.77700
Zn223      Zn  0.36887346  0.57403214  0.81625962     1.49700
Zn224      Zn  0.36339972  0.61295863  0.88842593     1.49400
Zn225      Zn  0.40211783  0.61865022  0.84826544     1.49100
Zn226      Zn  0.36542581  0.65960614  0.82283058     1.49500
O227        O  0.37473930  0.61600672  0.84373122    -1.82000
O228        O  0.35072293  0.54166436  0.84225280    -0.72700
O229        O  0.38340085  0.60752307  0.92446885    -0.72500
O230        O  0.41576873  0.58083851  0.82272209    -0.72000
O231        O  0.34604934  0.57076668  0.89007272    -0.72700
O232        O  0.39313202  0.54592325  0.80337489    -0.72300
O233        O  0.40996084  0.61410607  0.89567720    -0.72900
O234        O  0.38713282  0.69222701  0.81228860    -0.72300
O235        O  0.34908918  0.65779748  0.90077686    -0.73000
O236        O  0.41210303  0.66460837  0.83287508    -0.72400
O237        O  0.34873126  0.68888465  0.85399770    -0.72900
O238        O  0.35233085  0.64835703  0.77910927    -0.72800
O239        O  0.35599436  0.59048382  0.77310590    -0.72600
C240        C  0.34274962  0.54451064  0.87093668     0.79200
C241        C  0.40140879  0.60978310  0.92334606     0.79700
C242        C  0.41070340  0.55317447  0.80716625     0.78700
C243        C  0.40478187  0.69119034  0.81869191     0.79000
C244        C  0.34451888  0.68562387  0.88488318     0.80200
C245        C  0.35025522  0.62021741  0.76196394     0.79200
N246        N  0.28525658  0.88722687  0.01424215    -0.01400
C247        C  0.27524251  0.91522327  0.00268418     0.01200
C248        C  0.26997555  0.93723423  0.02866727    -0.21700
C249        C  0.27685418  0.92242077  0.05731792    -0.21900
C250        C  0.28610637  0.89175402  0.04800808     0.01100
H251        H  0.26167967  0.96109904  0.02696792     0.14900
H252        H  0.27535166  0.93300911  0.08235518     0.14900
C253        C  0.50661560  0.88922636  0.66299841     0.82300
N254        N  0.49900578  0.87057307  0.68880346    -0.76000
C255        C  0.48163525  0.85559862  0.68544293     0.84800
N256        N  0.47185531  0.85965196  0.65661379    -0.75900
C257        C  0.47905539  0.87878392  0.63102398     0.84900
N258        N  0.49652928  0.89326914  0.63430246    -0.77700
Zn259      Zn  0.66776711  0.10308693  0.57373407     1.49700
Zn260      Zn  0.66276001  0.15095244  0.63908760     1.49400
Zn261      Zn  0.62827377  0.10586040  0.61088379     1.49100
Zn262      Zn  0.66260156  0.06491846  0.64434797     1.49500
O263        O  0.65555717  0.10622992  0.61741105    -1.82000
O264        O  0.68071077  0.14854679  0.56197682    -0.72700
O265        O  0.63946547  0.18155036  0.64731956    -0.72500
O266        O  0.62142683  0.09618045  0.56345348    -0.72000
O267        O  0.67983651  0.18047283  0.60845481    -0.72700
O268        O  0.64901573  0.09234486  0.53711599    -0.72300
O269        O  0.61609907  0.15114180  0.62438905    -0.72900
O270        O  0.63949227  0.03369135  0.65466426    -0.72300
O271        O  0.67525915  0.14092379  0.68421890    -0.73000
O272        O  0.61594274  0.06737883  0.63651852    -0.72400
O273        O  0.67387554  0.08241886  0.68791636    -0.72900
O274        O  0.68259404  0.03490825  0.62041125    -0.72800
O275        O  0.68699524  0.06415813  0.57304040    -0.72600
C276        C  0.68477466  0.17663748  0.57787184     0.79200
C277        C  0.62206045  0.17858216  0.63923602     0.79700
C278        C  0.63099964  0.09073174  0.53698372     0.78700
C279        C  0.62180515  0.03959003  0.65080658     0.79000
C280        C  0.67828120  0.11237570  0.70028449     0.80200
C281        C  0.69102927  0.03859637  0.59233369     0.79200
N282        N  0.74652193  0.36670464  0.44079150    -0.01400
C283        C  0.76072245  0.39027636  0.44626816     0.01200
C284        C  0.76455259  0.40896363  0.41739029    -0.21700
C285        C  0.75251000  0.39658761  0.39328182    -0.21900
C286        C  0.74166114  0.37067908  0.40808042     0.01100
H287        H  0.77501883  0.42955633  0.41425913     0.14900
H288        H  0.75183574  0.40524101  0.36756985     0.14900
C289        C  0.74119355  0.28573774  0.49361331     0.14800
C290        C  0.72255316  0.28960677  0.50565854     0.01700
C291        C  0.71227515  0.32011594  0.49749091     0.16700
C292        C  0.72033417  0.34590400  0.47681441     0.26100
C293        C  0.73877500  0.34160793  0.46407282    -0.40200
C294        C  0.74927805  0.31167837  0.47310898     0.33200
C295        C  0.71335370  0.26071238  0.52462922     0.01800
F296        F  0.69422739  0.32434950  0.50871881    -0.12500
F297        F  0.76713697  0.30714995  0.46112437    -0.13100
C298        C  0.71040679  0.26327338  0.55931199     0.16700
C299        C  0.70138183  0.23593612  0.57682866     0.26100
C300        C  0.69500921  0.20548397  0.55985521    -0.40200
C301        C  0.69799258  0.20335775  0.52487445     0.33100
C302        C  0.70709732  0.23058769  0.50763017     0.14800
F303        F  0.71634309  0.29225889  0.57623358    -0.12500
F304        F  0.69176904  0.17526514  0.50692361    -0.13000
F305        F  0.69888869  0.23944985  0.61036481    -0.15300
F306        F  0.70946340  0.22789185  0.47398434    -0.13900
F307        F  0.75140374  0.25652618  0.50129199    -0.13900
F308        F  0.71017117  0.37512436  0.46921295    -0.15300
C309        C  0.54938723  0.93709184  0.69805297     0.14800
C310        C  0.56041140  0.94194890  0.66907127     0.01700
C311        C  0.55436119  0.92703101  0.63875503     0.16700
C312        C  0.53717615  0.90885878  0.63709534     0.26100
C313        C  0.52567570  0.90525571  0.66576834    -0.40200
C314        C  0.53221144  0.91869133  0.69649896     0.33200
C315        C  0.57706306  0.96568896  0.66942760     0.01800
F316        F  0.56463893  0.93161770  0.61031163    -0.12500
F317        F  0.52154517  0.91568331  0.72468645    -0.13100
C318        C  0.59517618  0.95346749  0.66019579     0.16700
C319        C  0.61027982  0.97718748  0.65644287     0.26100
C320        C  0.60736798  0.01353784  0.66140327    -0.40200
C321        C  0.58938604  0.02536969  0.67203970     0.33100
C322        C  0.57442426  0.00168736  0.67606383     0.14800
F323        F  0.59803171  0.91874041  0.65365790    -0.12500
F324        F  0.58608371  0.06019731  0.67738026    -0.13000
F325        F  0.62731851  0.96492585  0.64560764    -0.15300
F326        F  0.55699633  0.01425988  0.68440113    -0.13900
F327        F  0.55502954  0.95107512  0.72768045    -0.13900
F328        F  0.53171953  0.89506231  0.60726790    -0.15300
C329        C  0.29541416  0.79635110  0.98124368     0.14800
C330        C  0.30946285  0.80308287  0.95692258     0.01700
C331        C  0.31505750  0.83822145  0.95134233     0.16700
C332        C  0.30686756  0.86583635  0.96983984     0.26100
C333        C  0.29318761  0.85885172  0.99458830    -0.40200
C334        C  0.28748895  0.82394075  0.00006167     0.33200
C335        C  0.31849225  0.77330816  0.93817346     0.01800
F336        F  0.32888016  0.84572486  0.92875044    -0.12500
F337        F  0.27395215  0.81672631  0.02323814    -0.13100
C338        C  0.31854196  0.77233273  0.90296486     0.16700
C339        C  0.32671160  0.74381531  0.88562046     0.26100
C340        C  0.33495859  0.71535453  0.90309251    -0.40200
C341        C  0.33503597  0.71673643  0.93842470     0.33100
C342        C  0.32700026  0.74535089  0.95562089     0.14800
F343        F  0.31038309  0.79877843  0.88526782    -0.12500
F344        F  0.34342182  0.69090969  0.95660210    -0.13000
F345        F  0.32641870  0.74412068  0.85166012    -0.15300
F346        F  0.32798626  0.74617745  0.98954332    -0.13900
F347        F  0.28917288  0.76299080  0.98646051    -0.13900
F348        F  0.31276131  0.89938766  0.96450172    -0.15300
C349        C  0.45792722  0.77898480  0.72713101     0.14800
C350        C  0.45310271  0.79329862  0.75838874     0.01700
C351        C  0.45890439  0.82754865  0.76675736     0.16700
C352        C  0.46923888  0.84756617  0.74360182     0.26100
C353        C  0.47345941  0.83355246  0.71185071    -0.40200
C354        C  0.46789610  0.79905544  0.70392277     0.33200
C355        C  0.44115978  0.77231743  0.78091954     0.01800
F356        F  0.45418742  0.84170894  0.79687990    -0.12500
F357        F  0.47183746  0.78504852  0.67337548    -0.13100
C358        C  0.44894138  0.74298429  0.79698042     0.16700
C359        C  0.43713468  0.71750584  0.81096440     0.26100
C360        C  0.41722631  0.72081523  0.80866983    -0.40200
C361        C  0.40954510  0.75188851  0.79488337     0.33100
C362        C  0.42147561  0.77739275  0.78105121     0.14800
F363        F  0.46800203  0.73792847  0.79717315    -0.12500
F364        F  0.39051104  0.75702760  0.79339955    -0.13000
F365        F  0.44531649  0.68871694  0.82498114    -0.15300
F366        F  0.41377384  0.80582482  0.76562106    -0.19500
F367        F  0.45231540  0.74591517  0.71869811    -0.13900
F368        F  0.47418220  0.88114268  0.75138314    -0.15300
C369        C  0.56221097  0.26584687  0.72208106     0.14800
C370        C  0.56881382  0.27931450  0.69154391     0.01700
C371        C  0.56451837  0.31427771  0.68278064     0.16700
C372        C  0.55453958  0.33603514  0.70523696     0.26100
C373        C  0.54913214  0.32308605  0.73679121    -0.40200
C374        C  0.55258074  0.28757961  0.74458402     0.33200
C375        C  0.58195603  0.25751498  0.67140052     0.01800
F376        F  0.57071623  0.32766661  0.65324641    -0.12500
F377        F  0.54751952  0.27445080  0.77490455    -0.13100
C378        C  0.57559229  0.22606468  0.65688566     0.16700
C379        C  0.58857338  0.20107907  0.64506864     0.26100
C380        C  0.60829588  0.20698576  0.64788146    -0.40200
C381        C  0.61454417  0.23972457  0.66045837     0.33100
C382        C  0.60146324  0.26472413  0.67206268     0.14800
F383        F  0.55676208  0.21877672  0.65578920    -0.12500
F384        F  0.63331520  0.24720283  0.66269531    -0.13000
F385        F  0.58171071  0.17037304  0.63253224    -0.15300
F386        F  0.60790619  0.29501000  0.68612460    -0.13900
F387        F  0.56635883  0.23224887  0.73116164    -0.13900
F388        F  0.55156647  0.37036193  0.69735175    -0.15300
C389        C  0.43886517  0.46940585  0.78923456     0.14800
C390        C  0.45718430  0.48300442  0.78345271     0.01700
C391        C  0.45931594  0.51974964  0.78067215     0.16700
C392        C  0.44397132  0.54240595  0.78664856     0.26100
C393        C  0.42589991  0.52893742  0.79477017    -0.40200
C394        C  0.42334953  0.49213688  0.79445949     0.33200
C395        C  0.47428064  0.45951548  0.78333531     0.01800
F396        F  0.47647442  0.53385299  0.77301438    -0.12500
F397        F  0.40613254  0.47804701  0.80156841    -0.13100
C398        C  0.47544330  0.42947244  0.76265966     0.16700
C399        C  0.49138264  0.40718614  0.76381415     0.26100
C400        C  0.50666301  0.41459624  0.78548460    -0.40200
C401        C  0.50552031  0.44496923  0.80576036     0.33100
C402        C  0.48954372  0.46686078  0.80488313     0.14800
F403        F  0.46122066  0.42180580  0.74104231    -0.12500
F404        F  0.51998162  0.45393658  0.82640427    -0.13000
F405        F  0.49158152  0.37790219  0.74423949    -0.15300
F406        F  0.48884502  0.49500195  0.82589455    -0.13900
F407        F  0.43615758  0.43414058  0.79204492    -0.13900
F408        F  0.44694537  0.57771913  0.78518918    -0.15300
C409        C  0.29775122  0.63968904  0.62637622     0.14800
C410        C  0.31662449  0.62821562  0.62924164     0.01700
C411        C  0.32573923  0.61381814  0.60095921     0.16700
C412        C  0.31558132  0.60770934  0.57139579     0.26100
C413        C  0.29617245  0.61582410  0.56977654    -0.40200
C414        C  0.28760064  0.63343122  0.59690099     0.33200
C415        C  0.32576516  0.62667939  0.66268915     0.01800
F416        F  0.34409985  0.60325628  0.60284364    -0.12500
F417        F  0.26879848  0.64110946  0.59610364    -0.13100
C418        C  0.33018709  0.59384197  0.67687556     0.16700
C419        C  0.33787458  0.59164318  0.70907976     0.26100
C420        C  0.34139768  0.62238965  0.72801544    -0.40200
C421        C  0.33681014  0.65535996  0.71361983     0.33100
C422        C  0.32904545  0.65737765  0.68140122     0.14800
F423        F  0.32655703  0.56364289  0.65977739    -0.12500
F424        F  0.33991284  0.68588693  0.73049266    -0.13000
F425        F  0.34165628  0.55921517  0.72169245    -0.15300
F426        F  0.32486983  0.68943027  0.66831430    -0.13900
F427        F  0.28857030  0.65363296  0.65323590    -0.13900
F428        F  0.32411173  0.59001861  0.54592208    -0.15300
C429        C  0.29635074  0.85179190  0.13151206     0.14800
C430        C  0.31615748  0.84797769  0.13011005     0.01700
C431        C  0.32543393  0.85183609  0.09902350     0.16700
C432        C  0.31534882  0.86282080  0.07070351     0.26100
C433        C  0.29577548  0.86926827  0.07292797    -0.40200
C434        C  0.28626100  0.86183962  0.10310502     0.33200
C435        C  0.32715711  0.84490775  0.16167589     0.01800
F436        F  0.34448229  0.84724639  0.09663756    -0.12500
F437        F  0.26728757  0.86738118  0.10585965    -0.13100
C438        C  0.32264808  0.81921366  0.18581741     0.16700
C439        C  0.33157716  0.81941533  0.21712821     0.26100
C440        C  0.34551154  0.84470084  0.22442382    -0.40200
C441        C  0.35039304  0.86968185  0.20000044     0.33100
C442        C  0.34113781  0.87012382  0.16917651     0.14800
F443        F  0.30951774  0.79406228  0.17913241    -0.12500
F444        F  0.36348115  0.89493828  0.20666840    -0.13000
F445        F  0.32679654  0.79468153  0.24013269    -0.15300
F446        F  0.34517110  0.89643762  0.14732809    -0.13900
F447        F  0.28693239  0.84918050  0.16109170    -0.13900
F448        F  0.32504035  0.87061587  0.04229853    -0.15300
C449        C  0.43779918  0.87995514  0.57049689     0.14800
C450        C  0.44698354  0.88631746  0.53992531     0.01700
C451        C  0.46658753  0.89257409  0.53954507     0.16700
C452        C  0.47701293  0.89107882  0.56922505     0.26100
C453        C  0.46797161  0.88310543  0.59981420    -0.40200
C454        C  0.44814474  0.87819852  0.60011525     0.33200
C455        C  0.43629935  0.88319749  0.50834915     0.01800
F456        F  0.47579737  0.89837567  0.51018997    -0.12500
F457        F  0.43865051  0.87151094  0.62902007    -0.13100
C458        C  0.43515802  0.91140700  0.48575990     0.16700
C459        C  0.42485123  0.90784221  0.45605262     0.26100
C460        C  0.41556734  0.87590407  0.44854637    -0.40200
C461        C  0.41686226  0.84774753  0.47133121     0.33100
C462        C  0.42716826  0.85136277  0.50078012     0.14800
F463        F  0.44385892  0.94246823  0.49264310    -0.12500
F464        F  0.40796756  0.81664667  0.46542032    -0.13000
F465        F  0.42430666  0.93536008  0.43442335    -0.15300
F466        F  0.42846189  0.82342860  0.52183203    -0.13900
F467        F  0.41875066  0.87481980  0.57154084    -0.13900
F468        F  0.49606171  0.89579211  0.56761068    -0.15300
C469        C  0.31633635  0.64420314  0.45497047     0.14800
C470        C  0.30862161  0.67840478  0.45358375     0.01700
C471        C  0.29182372  0.68564949  0.47141275     0.16700
C472        C  0.28312238  0.65932323  0.49070273     0.26100
C473        C  0.29096051  0.62533395  0.49226829    -0.40200
C474        C  0.30755928  0.61790578  0.47413071     0.33200
C475        C  0.31872403  0.70684986  0.43512127     0.01800
F476        F  0.28421249  0.71851536  0.47099586    -0.12500
F477        F  0.31554101  0.58544755  0.47573266    -0.13100
C478        C  0.31057861  0.72318311  0.40705991     0.16700
C479        C  0.32044773  0.74956126  0.38953349     0.26100
C480        C  0.33869861  0.76022465  0.39980633    -0.40200
C481        C  0.34661096  0.74402574  0.42837184     0.33100
C482        C  0.33675485  0.71770604  0.44566844     0.14800
F483        F  0.29322451  0.71297450  0.39614872    -0.12500
F484        F  0.36385190  0.75394063  0.44009087    -0.13000
F485        F  0.31228760  0.76399433  0.36206870    -0.15300
F486        F  0.34475276  0.70306893  0.47320787    -0.13900
F487        F  0.33245988  0.63637046  0.43785015    -0.13900
F488        F  0.26714265  0.66699387  0.50827345    -0.15300
C489        C  0.59645679  0.04886425  0.38724031     0.14800
C490        C  0.58907341  0.06694902  0.41516036     0.01700
C491        C  0.57113228  0.08305122  0.41285282     0.16700
C492        C  0.56091874  0.08155867  0.38300572     0.26100
C493        C  0.56870401  0.06481936  0.35482374    -0.40200
C494        C  0.58645496  0.04828371  0.35711720     0.33200
C495        C  0.60037314  0.07055358  0.44613879     0.01800
F496        F  0.56388908  0.10166583  0.43899812    -0.12500
F497        F  0.59406431  0.03156675  0.33015522    -0.13100
C498        C  0.61876076  0.08480762  0.44491100     0.16700
C499        C  0.62897512  0.09043153  0.47433980     0.26100
C500        C  0.62083733  0.08252120  0.50561864    -0.40200
C501        C  0.60258201  0.06749248  0.50672299     0.33100
C502        C  0.59252908  0.06135109  0.47725203     0.14800
F503        F  0.62655346  0.09470117  0.41528224    -0.12500
F504        F  0.59445635  0.05844035  0.53633138    -0.13000
F505        F  0.64650165  0.10502645  0.47222692    -0.15300
F506        F  0.57508016  0.04638506  0.47910879    -0.13900
F507        F  0.61339008  0.03193618  0.38912468    -0.13900
F508        F  0.54390183  0.09818503  0.38103437    -0.15300
C509        C  0.48931048  0.99897345  0.30385665     0.14800
C510        C  0.47611971  0.01222154  0.28097765     0.01700
C511        C  0.48108256  0.04097463  0.26072904     0.16700
C512        C  0.49925933  0.05593948  0.26307055     0.26100
C513        C  0.51260882  0.04243700  0.28596739    -0.40200
C514        C  0.50731323  0.01378073  0.30636994     0.33200
C515        C  0.45748219  0.99468008  0.27850212     0.01800
F516        F  0.46840115  0.05433565  0.23864936    -0.12500
F517        F  0.51970100  0.99928993  0.32835659    -0.13100
C518        C  0.44198022  0.00735182  0.29701529     0.16700
C519        C  0.42609891  0.98590736  0.30235800     0.26100
C520        C  0.42554791  0.95126326  0.28937454    -0.40200
C521        C  0.44045361  0.94005304  0.26822816     0.33100
C522        C  0.45629552  0.96153556  0.26307172     0.14800
F523        F  0.44283788  0.03944434  0.31201474    -0.12500
F524        F  0.44053244  0.90720366  0.25471356    -0.13000
F525        F  0.41171963  0.99846311  0.32167590    -0.15300
F526        F  0.47118472  0.94890760  0.24504176    -0.13900
F527        F  0.48470415  0.97134476  0.32382489    -0.13900
F528        F  0.50362642  0.08395300  0.24346910    -0.15300
C529        C  0.70284171  0.08690544  0.85712314     0.14800
C530        C  0.70973052  0.11216904  0.83446517     0.01700
C531        C  0.72612083  0.13131753  0.84272153     0.16700
C532        C  0.73653362  0.12263760  0.87141214     0.26100
C533        C  0.73066584  0.09478286  0.89207665    -0.40200
C534        C  0.71330336  0.07811934  0.88560669     0.33200
C535        C  0.70192760  0.11349976  0.80001481     0.01800
F536        F  0.73311765  0.15574036  0.82123317    -0.12500
F537        F  0.70748542  0.05084056  0.90499150    -0.13100
C538        C  0.69302631  0.14377962  0.78737114     0.16700
C539        C  0.68559216  0.14386637  0.75475479     0.26100
C540        C  0.68698989  0.11359479  0.73423038    -0.40200
C541        C  0.69642043  0.08371775  0.74689550     0.33100
C542        C  0.70377791  0.08374251  0.77930261     0.14800
F543        F  0.69115409  0.17292476  0.80686140    -0.12500
F544        F  0.69882835  0.05443542  0.72775184    -0.13000
F545        F  0.67655520  0.17319510  0.74370628    -0.15300
F546        F  0.71300692  0.05462861  0.79043706    -0.13900
F547        F  0.68682177  0.06858067  0.85005093    -0.13900
F548        F  0.75347669  0.13855142  0.87685247    -0.15300
C549        C  0.69813527  0.36863451  0.27788365     0.14800
C550        C  0.69933451  0.33624533  0.29479461     0.01700
C551        C  0.69388514  0.30539491  0.27790005     0.16700
C552        C  0.68710126  0.30701279  0.24489241     0.26100
C553        C  0.68565740  0.33965087  0.22797404    -0.40200
C554        C  0.69137185  0.37038063  0.24504490     0.33200
C555        C  0.70718195  0.33535087  0.32939236     0.01800
F556        F  0.69487277  0.27372059  0.29352283    -0.12500
F557        F  0.69077775  0.40231159  0.22985424    -0.13100
C558        C  0.69924442  0.35689267  0.35450878     0.16700
C559        C  0.70951738  0.36475216  0.38353515     0.26100
C560        C  0.72766704  0.35038614  0.38839790    -0.40200
C561        C  0.73451802  0.32536658  0.36529864     0.33100
C562        C  0.72439873  0.31796378  0.33593288     0.14800
F563        F  0.68228713  0.37295891  0.34944546    -0.12500
F564        F  0.75215643  0.31159956  0.36909832    -0.13000
F565        F  0.70275865  0.38983344  0.40468171    -0.15300
F566        F  0.73245952  0.29695890  0.31229368    -0.13900
F567        F  0.70403722  0.39875774  0.29298259    -0.13900
F568        F  0.68169829  0.27656940  0.22980023    -0.15300
C569        C  0.58706781  0.33976232  0.88156847     0.14800
C570        C  0.58512727  0.36534221  0.90662331     0.01700
C571        C  0.57159731  0.39216760  0.90285354     0.16700
C572        C  0.56005103  0.39336644  0.87435941     0.26100
C573        C  0.56173853  0.36746267  0.84909117    -0.40200
C574        C  0.57550598  0.34059373  0.85322302     0.33200
C575        C  0.59639909  0.36251606  0.93766463     0.01800
F576        F  0.56958381  0.41725170  0.92687636    -0.12500
F577        F  0.57767542  0.31446121  0.83025822    -0.13100
C578        C  0.61560522  0.37210861  0.93819814     0.16700
C579        C  0.62627740  0.36830505  0.96753993     0.26100
C580        C  0.61790123  0.35455258  0.99690043    -0.40200
C581        C  0.59859789  0.34472076  0.99590826     0.33100
C582        C  0.58801656  0.34876727  0.96663563     0.14800
F583        F  0.62397277  0.38541254  0.91032313    -0.12500
F584        F  0.58990609  0.33061633  0.02310352    -0.13000
F585        F  0.64470472  0.37859646  0.96721704    -0.15300
F586        F  0.56956451  0.33862831  0.96634654    -0.13900
F587        F  0.59990738  0.31332616  0.88499713    -0.13900
F588        F  0.54733812  0.42004805  0.87161066    -0.15300
C589        C  0.71893833  0.13830706  0.99794936     0.14800
C590        C  0.72979861  0.16895227  0.00281341     0.01700
C591        C  0.74803634  0.17089910  0.98855938     0.16700
C592        C  0.75520929  0.14270395  0.96960703     0.26100
C593        C  0.74416329  0.11250273  0.96429354    -0.40200
C594        C  0.72603344  0.11042597  0.97863240     0.33200
C595        C  0.72161457  0.19925123  0.02150183     0.01800
F596        F  0.75884000  0.20010224  0.99297993    -0.12500
F597        F  0.71524855  0.08128508  0.97384480    -0.13100
C598        C  0.71628583  0.19565919  0.05518928     0.16700
C599        C  0.70663492  0.22289010  0.07178625     0.26100
C600        C  0.70192630  0.25437206  0.05486743    -0.40200
C601        C  0.70817798  0.25841053  0.02145945     0.33100
C602        C  0.71789205  0.23113627  0.00504402     0.14800
F603        F  0.72016344  0.16539425  0.07189450    -0.12500
F604        F  0.70446936  0.28835120  0.00414128    -0.13000
F605        F  0.70142519  0.21776828  0.10414188    -0.15300
F606        F  0.72288240  0.23525553  0.97244577    -0.13900
F607        F  0.70122237  0.13585871  0.01112309    -0.13900
F608        F  0.77271353  0.14512821  0.95562873    -0.15300
C609        C  0.61105708  0.17643914  0.15507955     0.14800
C610        C  0.59471601  0.18234921  0.17450197     0.01700
C611        C  0.58784072  0.21688361  0.17840252     0.16700
C612        C  0.59752594  0.24525066  0.16410716     0.26100
C613        C  0.61439139  0.23954734  0.14603347    -0.40200
C614        C  0.62086199  0.20484089  0.14101849     0.33200
C615        C  0.58614418  0.15345870  0.19416668     0.01800
F616        F  0.57243858  0.22334466  0.19795630    -0.12500
F617        F  0.63679206  0.19849372  0.12279413    -0.13100
C618        C  0.59665297  0.13776666  0.21982757     0.16700
C619        C  0.58801510  0.11447538  0.24208554     0.26100
C620        C  0.56847858  0.10655246  0.23942116    -0.40200
C621        C  0.55829432  0.12060907  0.21218371     0.33100
C622        C  0.56706996  0.14397819  0.18987259     0.14800
F623        F  0.61509629  0.14666608  0.22462092    -0.12500
F624        F  0.53964252  0.11321705  0.20790136    -0.13000
F625        F  0.59881388  0.10068153  0.26690630    -0.15300
F626        F  0.55680000  0.15824040  0.16461961    -0.13900
F627        F  0.61777814  0.14322449  0.15054155    -0.13900
F628        F  0.59114122  0.27847834  0.16993914    -0.15300
C629        C  0.41529000  0.59922328  0.01481142     0.14800
C630        C  0.43493323  0.60513733  0.01331284     0.01700
C631        C  0.44339787  0.61318022  0.98251626     0.16700
C632        C  0.43254560  0.61455688  0.95344692     0.26100
C633        C  0.41282186  0.60804307  0.95452754    -0.40200
C634        C  0.40430697  0.60062980  0.98572056     0.33200
C635        C  0.44674425  0.60248148  0.04370159     0.01800
F636        F  0.46224280  0.62024113  0.98066692    -0.12500
F637        F  0.38540361  0.59442538  0.98820599    -0.13100
C638        C  0.46160951  0.57788334  0.04519120     0.16700
C639        C  0.47284170  0.57520794  0.07385292     0.26100
C640        C  0.46938451  0.59713366  0.10174308    -0.40200
C641        C  0.45456933  0.62224946  0.09977397     0.33100
C642        C  0.44340037  0.62477664  0.07108131     0.14800
F643        F  0.46500162  0.55587310  0.01900925    -0.12500
F644        F  0.45090197  0.64486026  0.12538326    -0.13000
F645        F  0.48680056  0.55057437  0.07438216    -0.15300
F646        F  0.42948497  0.64950939  0.06980390    -0.13900
F647        F  0.40679505  0.59139934  0.04440654    -0.13900
F648        F  0.44148867  0.62264871  0.92432596    -0.15300
C649        C  0.44853773  0.64981322  0.24702084     0.14800
C650        C  0.45995762  0.67386127  0.26438549     0.01700
C651        C  0.47979487  0.67140043  0.26154238     0.16700
C652        C  0.48803968  0.64672682  0.23967008     0.26100
C653        C  0.47645776  0.62475211  0.22009074    -0.40200
C654        C  0.45669316  0.62551904  0.22507111     0.33200
C655        C  0.45080834  0.70418360  0.28120630     0.01800
F656        F  0.49106880  0.69415828  0.27853889    -0.12500
F657        F  0.44513690  0.60410812  0.20706562    -0.13100
C658        C  0.43847392  0.69894406  0.30835284     0.16700
C659        C  0.42697503  0.72650168  0.31992700     0.26100
C660        C  0.42741255  0.75968084  0.30409687    -0.40200
C661        C  0.44049506  0.76523420  0.27792827     0.33100
C662        C  0.45210259  0.73774198  0.26667765     0.14800
F663        F  0.43702916  0.66668423  0.32274040    -0.12500
F664        F  0.44185825  0.79711862  0.26277328    -0.13000
F665        F  0.41469865  0.72005736  0.34541997    -0.15300
F666        F  0.46380290  0.74330497  0.24016561    -0.13900
F667        F  0.42934352  0.65186211  0.24915334    -0.13900
F668        F  0.50714129  0.64653524  0.23545390    -0.15300
C669        C  0.55199826  0.52462934  0.13278666     0.14800
C670        C  0.55840901  0.50870327  0.16233945     0.01700
C671        C  0.54832765  0.51450324  0.19222425     0.16700
C672        C  0.53203097  0.53574732  0.19255370     0.26100
C673        C  0.52533780  0.55134231  0.16280547    -0.40200
C674        C  0.53565420  0.54562020  0.13293247     0.33200
C675        C  0.57493222  0.48438474  0.16132070     0.01800
F676        F  0.55420738  0.49929872  0.22110456    -0.12500
F677        F  0.52999664  0.56033692  0.10367953    -0.13100
C678        C  0.59308368  0.49665899  0.15252723     0.16700
C679        C  0.60820936  0.47295181  0.14823133     0.26100
C680        C  0.60531617  0.43646787  0.15206939    -0.40200
C681        C  0.58728587  0.42449387  0.16221210     0.33100
C682        C  0.57229825  0.44821712  0.16692619     0.14800
F683        F  0.59601589  0.53156021  0.14728685    -0.12500
F684        F  0.58404459  0.38958949  0.16691073    -0.13000
F685        F  0.62534078  0.48549736  0.13832757    -0.15300
F686        F  0.55491955  0.43563673  0.17535585    -0.13900
F687        F  0.56126564  0.51889153  0.10343552    -0.13900
F688        F  0.52247139  0.53993345  0.22183121    -0.15300
C689        C  0.32092081  0.45455363  0.88886017     0.14800
C690        C  0.30743840  0.46316945  0.91359276     0.01700
C691        C  0.30461106  0.49880448  0.92192383     0.16700
C692        C  0.31549486  0.52516434  0.90688699     0.26100
C693        C  0.32961598  0.51662241  0.88319027    -0.40200
C694        C  0.33184293  0.48104436  0.87361307     0.33200
C695        C  0.29758646  0.43546359  0.93340278     0.01800
F696        F  0.29196848  0.50804186  0.94611192    -0.12500
F697        F  0.34524227  0.47162729  0.85081990    -0.13100
C698        C  0.30818033  0.41267111  0.95384407     0.16700
C699        C  0.29922262  0.39319529  0.97905907     0.26100
C700        C  0.27954545  0.39587917  0.98402803    -0.40200
C701        C  0.26872851  0.41582021  0.96148902     0.33100
C702        C  0.27768548  0.43553818  0.93638307     0.14800
F703        F  0.32739457  0.41210242  0.95179286    -0.12500
F704        F  0.24976847  0.41959037  0.96630402    -0.13000
F705        F  0.30996330  0.37431457  0.00073504    -0.15300
F706        F  0.26706805  0.45693583  0.91671987    -0.13900
F707        F  0.32381827  0.42038961  0.88007751    -0.13900
F708        F  0.31239948  0.55916442  0.91607883    -0.15300
C709        C  0.22150849  0.26001805  0.90802859     0.14800
C710        C  0.21968283  0.26278289  0.94296224     0.01700
C711        C  0.20795727  0.23892855  0.95998177     0.16700
C712        C  0.19788487  0.21314171  0.94242365     0.26100
C713        C  0.19916162  0.21082781  0.90723263    -0.40200
C714        C  0.21123248  0.23445079  0.89025011     0.33200
C715        C  0.22951723  0.29098810  0.96191434     0.01800
F716        F  0.20624058  0.24070025  0.99379912    -0.12500
F717        F  0.21324667  0.23262729  0.85649706    -0.13100
C718        C  0.21895208  0.31791941  0.97745502     0.16700
C719        C  0.22794263  0.34323545  0.99741131     0.26100
C720        C  0.24763576  0.34189455  0.00234110    -0.40200
C721        C  0.25825718  0.31541020  0.98620606     0.33100
C722        C  0.24928046  0.29017774  0.96609022     0.14800
F723        F  0.19987583  0.31955139  0.97332506    -0.12500
F724        F  0.27724137  0.31313391  0.99118628    -0.13000
F725        F  0.21746082  0.36923921  0.01170468    -0.15300
F726        F  0.25976223  0.26414662  0.95176149    -0.13900
F727        F  0.23294442  0.28257280  0.89108809    -0.13900
F728        F  0.18640222  0.19114510  0.95993756    -0.15300
C729        C  0.22687536  0.97872811  0.87285649     0.14800
C730        C  0.22755247  0.96993220  0.90689932     0.01700
C731        C  0.21402625  0.98412258  0.92897643     0.16700
C732        C  0.20050054  0.00804598  0.91754179     0.26100
C733        C  0.20012620  0.01798378  0.88364465    -0.40200
C734        C  0.21309131  0.00233290  0.86117178     0.33200
C735        C  0.24366406  0.95018227  0.92102891     0.01800
F736        F  0.21458175  0.97615802  0.96208125    -0.12500
F737        F  0.21317149  0.01150276  0.82836319    -0.13100
C738        C  0.25986283  0.96900066  0.93063308     0.16700
C739        C  0.27230832  0.95478274  0.95410379     0.26100
C740        C  0.26868898  0.92159369  0.96824161    -0.40200
C741        C  0.25385813  0.90094972  0.95541740     0.33100
C742        C  0.24126915  0.91534626  0.93204504     0.14800
F743        F  0.26226812  0.00286688  0.92059206    -0.12500
F744        F  0.24998091  0.86897630  0.96894315    -0.13000
F745        F  0.28645073  0.97528479  0.96637413    -0.15300
F746        F  0.22567208  0.89679126  0.92292691    -0.13900
F747        F  0.23999024  0.96551803  0.85128881    -0.13900
F748        F  0.18795481  0.02197099  0.93980609    -0.15300
C749        C  0.04847746  0.95647632  0.75713747     0.14800
C750        C  0.06007456  0.95685435  0.78570858     0.01700
C751        C  0.05531852  0.93527452  0.81293920     0.16700
C752        C  0.03885435  0.91479911  0.81225026     0.26100
C753        C  0.02679226  0.91530509  0.78418519    -0.40200
C754        C  0.03203803  0.93568571  0.75625640     0.33200
C755        C  0.07608566  0.98203675  0.78864327     0.01800
F756        F  0.06612819  0.93541966  0.84099411    -0.12500
F757        F  0.02071438  0.93714686  0.72889576    -0.13100
C758        C  0.07240927  0.01838083  0.78949143     0.16700
C759        C  0.08698585  0.04234392  0.79603882     0.26100
C760        C  0.10566614  0.03051021  0.80174077    -0.40200
C761        C  0.10946539  0.99409624  0.79966628     0.33100
C762        C  0.09476326  0.97008322  0.79340204     0.14800
F763        F  0.05444892  0.03060930  0.78562173    -0.12500
F764        F  0.12716988  0.98152525  0.80552525    -0.13000
F765        F  0.08269101  0.07721042  0.79740591    -0.15300
F766        F  0.09866130  0.93504993  0.79275549    -0.13900
F767        F  0.05283372  0.97700982  0.73043759    -0.13900
F768        F  0.03455047  0.89487609  0.83940855    -0.15300
C769        C  0.75784135  0.93056048  0.52853222     0.14800
C770        C  0.73797509  0.93199461  0.53130156     0.01700
C771        C  0.72686667  0.91177098  0.50941682     0.16700
C772        C  0.73536383  0.89350963  0.48291566     0.26100
C773        C  0.75509871  0.89478805  0.47821296    -0.40200
C774        C  0.76638437  0.91173085  0.50225428     0.33200
C775        C  0.72866211  0.95987696  0.55145418     0.01800
F776        F  0.70765471  0.91301675  0.51141698    -0.12500
F777        F  0.78545977  0.91360986  0.49801158    -0.13100
C778        C  0.72930790  0.99472307  0.53989516     0.16700
C779        C  0.71780159  0.02062081  0.55432983     0.26100
C780        C  0.70531412  0.01224059  0.58079949    -0.40200
C781        C  0.70559783  0.97765611  0.59375420     0.33100
C782        C  0.71706144  0.95163106  0.57893196     0.14800
F783        F  0.74021920  0.00319757  0.51303060    -0.12500
F784        F  0.69400581  0.96841142  0.61943805    -0.13000
F785        F  0.71848039  0.05369809  0.54149388    -0.15300
F786        F  0.71629558  0.91807127  0.59051013    -0.13900
F787        F  0.76882350  0.94991093  0.54947134    -0.13900
F788        F  0.72419426  0.87745728  0.45986335    -0.15300
C789        C  0.82646843  0.77244277  0.54405862     0.14800
C790        C  0.81132143  0.76269388  0.52305204     0.01700
C791        C  0.80556871  0.72709280  0.52265541     0.16700
C792        C  0.81520067  0.70181870  0.54171661     0.26100
C793        C  0.83123739  0.71128755  0.56044972    -0.40200
C794        C  0.83656686  0.74691458  0.56194131     0.33200
C795        C  0.80228784  0.78921649  0.50046546     0.01800
F796        F  0.79129050  0.71626726  0.50241603    -0.12500
F797        F  0.85158897  0.75702989  0.58081570    -0.13100
C798        C  0.81359056  0.81142276  0.48038845     0.16700
C799        C  0.80528984  0.83661672  0.45945184     0.26100
C800        C  0.78548486  0.83918262  0.45678497    -0.40200
C801        C  0.77416059  0.81645514  0.47617064     0.33100
C802        C  0.78242549  0.79232373  0.49827713     0.14800
F803        F  0.83277447  0.80849236  0.48064712    -0.12500
F804        F  0.75499901  0.81733442  0.47340510    -0.13000
F805        F  0.81668931  0.85922616  0.44267346    -0.15300
F806        F  0.77094561  0.77246034  0.51796104    -0.13900
F807        F  0.83161150  0.80675762  0.54713190    -0.13900
F808        F  0.80957404  0.66765589  0.54015367    -0.15300
C809        C  0.93274165  0.74799146  0.70043010     0.14800
C810        C  0.94302964  0.76932310  0.67821564     0.01700
C811        C  0.94213254  0.76231752  0.64376265     0.16700
C812        C  0.93065701  0.73488944  0.63164716     0.26100
C813        C  0.91999162  0.71379614  0.65391218    -0.40200
C814        C  0.92141594  0.72053456  0.68853251     0.33200
C815        C  0.95397527  0.79948120  0.69174522     0.01800
F816        F  0.95202498  0.78251619  0.62184354    -0.12500
F817        F  0.91144948  0.70119896  0.71105755    -0.13100
C818        C  0.97389268  0.79844854  0.69330341     0.16700
C819        C  0.98376561  0.82290050  0.71315140     0.26100
C820        C  0.97376398  0.84842405  0.73176029    -0.40200
C821        C  0.95401620  0.85128488  0.72756487     0.33100
C822        C  0.94424090  0.82710040  0.70770237     0.14800
F823        F  0.98360531  0.77206270  0.67792992    -0.12500
F824        F  0.94400826  0.87627154  0.74444818    -0.13000
F825        F  0.00280270  0.81940976  0.71676707    -0.15300
F826        F  0.92505310  0.82920192  0.70579224    -0.13900
F827        F  0.93359939  0.75398781  0.73391101    -0.13900
F828        F  0.93011138  0.72889631  0.59816339    -0.15300
C829        C  0.79852786  0.49960898  0.54208771     0.14800
C830        C  0.80331381  0.46363099  0.54426600     0.01700
C831        C  0.81955421  0.45404986  0.56250737     0.16700
C832        C  0.83110071  0.47991330  0.57718073     0.26100
C833        C  0.82652466  0.51595375  0.57436646    -0.40200
C834        C  0.80988895  0.52541796  0.55720418     0.33200
C835        C  0.79238266  0.43690289  0.52472357     0.01800
F836        F  0.82440264  0.41959385  0.56569940    -0.12500
F837        F  0.80526114  0.55987147  0.55311123    -0.13100
C838        C  0.80157624  0.41663387  0.49998506     0.16700
C839        C  0.79102998  0.39707949  0.47687224     0.26100
C840        C  0.77108834  0.39751842  0.47776513    -0.40200
C841        C  0.76192605  0.41494979  0.50432232     0.33100
C842        C  0.77249622  0.43445050  0.52767675     0.14800
F843        F  0.82067708  0.41847579  0.49604617    -0.12500
F844        F  0.74271009  0.41623929  0.50559768    -0.13000
F845        F  0.80025080  0.38044545  0.45145232    -0.15300
F846        F  0.76322615  0.45276956  0.55193473    -0.13900
F847        F  0.78344073  0.51001229  0.52353194    -0.13900
F848        F  0.84684989  0.46968869  0.59403330    -0.15300
C849        C  0.07505680  0.33373216  0.76730094     0.14800
C850        C  0.07731096  0.29863389  0.75663552     0.01700
C851        C  0.06899990  0.28772393  0.72647755     0.16700
C852        C  0.05958823  0.31202015  0.70625031     0.26100
C853        C  0.05806037  0.34746199  0.71611541    -0.40200
C854        C  0.06534431  0.35800337  0.74721192     0.33200
C855        C  0.08951124  0.27381298  0.77526874     0.01800
F856        F  0.07110180  0.25401671  0.71558976    -0.12500
F857        F  0.06433026  0.39227419  0.75685271    -0.13100
C858        C  0.08166219  0.24384129  0.79024865     0.16700
C859        C  0.09336464  0.21833145  0.80469617     0.26100
C860        C  0.11331379  0.22213927  0.80420134    -0.40200
C861        C  0.12107591  0.25278241  0.78962843     0.33100
C862        C  0.10926000  0.27833598  0.77539691     0.14800
F863        F  0.06259357  0.23897951  0.79031263    -0.12500
F864        F  0.14011415  0.25787859  0.78847360    -0.13000
F865        F  0.08504775  0.18942859  0.81824790    -0.15300
F866        F  0.11715684  0.30687508  0.76042588    -0.13900
F867        F  0.08289779  0.34471295  0.79648366    -0.13900
F868        F  0.05283231  0.30140168  0.67608581    -0.15300
C869        C  0.95307446  0.51430070  0.68849422     0.14800
C870        C  0.96007278  0.49009206  0.66489846     0.01700
C871        C  0.94939161  0.48291247  0.63612801     0.16700
C872        C  0.93245364  0.50086683  0.63008232     0.26100
C873        C  0.92578719  0.52671131  0.65274490    -0.40200
C874        C  0.93609064  0.53245829  0.68254895     0.33200
C875        C  0.97911990  0.47408074  0.66860558     0.01800
F876        F  0.95570244  0.45905212  0.61327244    -0.12500
F877        F  0.93015901  0.55651529  0.70550691    -0.13100
C878        C  0.98317577  0.45066018  0.69475366     0.16700
C879        C  0.00070523  0.43314412  0.69590653     0.26100
C880        C  0.01456476  0.43890185  0.67085417    -0.40200
C881        C  0.01064017  0.46407801  0.64575124     0.33100
C882        C  0.99314466  0.48121831  0.64465691     0.14800
F883        F  0.96986977  0.44368972  0.71843791    -0.12500
F884        F  0.02355761  0.47206600  0.62169786    -0.13000
F885        F  0.00376681  0.40986622  0.72104660    -0.15300
F886        F  0.98978113  0.50471353  0.61977594    -0.13900
F887        F  0.96318350  0.52169969  0.71648657    -0.13900
F888        F  0.92309605  0.49383592  0.60119498    -0.15300
C889        C  0.29079466  0.05491664  0.42994488     0.14800
C890        C  0.28933370  0.01813087  0.42525926     0.01700
C891        C  0.27671697  0.99908510  0.44559700     0.16700
C892        C  0.26715569  0.01572910  0.47180699     0.26100
C893        C  0.27045715  0.05147905  0.47912209    -0.40200
C894        C  0.28157002  0.07145575  0.45699666     0.33200
C895        C  0.30306240  0.99849888  0.40375667     0.01800
F896        F  0.27517003  0.96355891  0.44254691    -0.12500
F897        F  0.28496366  0.10601444  0.46331833    -0.13100
C898        C  0.32260708  0.00252814  0.40929349     0.16700
C899        C  0.33566725  0.97957233  0.39446847     0.26100
C900        C  0.32952778  0.95133245  0.37413873    -0.40200
C901        C  0.31000061  0.94848060  0.36711335     0.33100
C902        C  0.29694752  0.97198091  0.38158434     0.14800
F903        F  0.32908327  0.02708442  0.43120840    -0.12500
F904        F  0.30340078  0.92244403  0.34694207    -0.13000
F905        F  0.35429484  0.98401299  0.40182765    -0.15300
F906        F  0.27821161  0.96802377  0.37488010    -0.13900
F907        F  0.30222683  0.07432035  0.40977205    -0.13900
F908        F  0.25599671  0.99599029  0.49221048    -0.15300
C909        C  0.24113951  0.13612800  0.63651762     0.14800
C910        C  0.22194348  0.12633410  0.63854080     0.01700
C911        C  0.21302491  0.11268508  0.60982981     0.16700
C912        C  0.22354099  0.10570387  0.58075758     0.26100
C913        C  0.24312127  0.11223260  0.57997522    -0.40200
C914        C  0.25164643  0.12898642  0.60747369     0.33200
C915        C  0.21194112  0.12600153  0.67139637     0.01800
F916        F  0.19440975  0.10366781  0.61081873    -0.12500
F917        F  0.27060005  0.13519062  0.60735050    -0.13100
C918        C  0.20996134  0.15675197  0.69071844     0.16700
C919        C  0.20060746  0.15581789  0.72176114     0.26100
C920        C  0.19295119  0.12397710  0.73418570    -0.40200
C921        C  0.19544100  0.09304910  0.71493582     0.33100
C922        C  0.20484050  0.09410832  0.68408334     0.14800
F923        F  0.21685986  0.18787591  0.67930324    -0.12500
F924        F  0.18888537  0.06146739  0.72585196    -0.13000
F925        F  0.19906644  0.18624294  0.73949162    -0.15300
F926        F  0.20736644  0.06359205  0.66680299    -0.13900
F927        F  0.25019087  0.14932825  0.66371476    -0.13900
F928        F  0.21509263  0.08857761  0.55494150    -0.15300
C929        C  0.21196608  0.36990238  0.11751237     0.14800
C930        C  0.21415236  0.33647771  0.13203982     0.01700
C931        C  0.22683919  0.31226455  0.11725808     0.16700
C932        C  0.23824457  0.32243966  0.09003787     0.26100
C933        C  0.23710799  0.35692287  0.07752619    -0.40200
C934        C  0.22337664  0.38002634  0.09062273     0.33200
C935        C  0.20517824  0.32950829  0.16505857     0.01800
F936        F  0.22891799  0.27954250  0.13039326    -0.12500
F937        F  0.22211024  0.41356056  0.07904815    -0.13100
C938        C  0.18546574  0.33236653  0.16917823     0.16700
C939        C  0.17737592  0.33290592  0.20123675     0.26100
C940        C  0.18889513  0.33076041  0.23008770    -0.40200
C941        C  0.20858600  0.32581086  0.22564445     0.33100
C942        C  0.21659186  0.32525406  0.19352130     0.14800
F943        F  0.17407312  0.33587023  0.14205972    -0.12500
F944        F  0.22032122  0.32280976  0.25234162    -0.13000
F945        F  0.15827961  0.33665917  0.20380617    -0.15300
F946        F  0.23572063  0.32283622  0.19034352    -0.13900
F947        F  0.20003436  0.39400369  0.13137704    -0.13900
F948        F  0.25149476  0.29976872  0.07789967    -0.15300
C949        C  0.10183561  0.38711786  0.58115581     0.14800
C950        C  0.09434014  0.39784904  0.55044447     0.01700
C951        C  0.07612433  0.41260827  0.54923477     0.16700
C952        C  0.06506200  0.41485955  0.57830998     0.26100
C953        C  0.07215821  0.40235094  0.60905999    -0.40200
C954        C  0.09093560  0.38949951  0.61025353     0.33200
C955        C  0.10489954  0.39037631  0.51941129     0.01800
F956        F  0.06873145  0.42322474  0.51959153    -0.12500
F957        F  0.09874606  0.37865150  0.63948656    -0.13100
C958        C  0.10545569  0.35584924  0.50698626     0.16700
C959        C  0.11561982  0.34796312  0.47789201     0.26100
C960        C  0.12551597  0.37464238  0.46060041    -0.40200
C961        C  0.12499199  0.40938569  0.47352634     0.33100
C962        C  0.11470147  0.41709916  0.50263175     0.14800
F963        F  0.09593205  0.32974570  0.52299924    -0.12500
F964        F  0.13442782  0.43603226  0.45818855    -0.13000
F965        F  0.11551715  0.31419887  0.46660673    -0.15300
F966        F  0.11444088  0.45058878  0.51465542    -0.13900
F967        F  0.11959616  0.37338148  0.58273657    -0.13900
F968        F  0.04711043  0.42749224  0.57585834    -0.15300
C969        C  0.22871358  0.21583548  0.41393967     0.14800
C970        C  0.22207956  0.20334995  0.44490716     0.01700
C971        C  0.20542745  0.21768117  0.45850318     0.16700
C972        C  0.19517092  0.24329427  0.44107684     0.26100
C973        C  0.20140498  0.25543874  0.40951503    -0.40200
C974        C  0.21854356  0.24180413  0.39643764     0.33200
C975        C  0.23210805  0.17488046  0.46314244     0.01800
F976        F  0.19893089  0.20640234  0.48864759    -0.12500
F977        F  0.22522023  0.25281872  0.36633956    -0.13100
C978        C  0.24369601  0.18298437  0.49057014     0.16700
C979        C  0.25169542  0.15601318  0.50981788     0.26100
C980        C  0.24800825  0.12037591  0.50239234    -0.40200
C981        C  0.23657589  0.11229333  0.47461942     0.33100
C982        C  0.22878407  0.13935635  0.45506329     0.14800
F983        F  0.24711239  0.21709364  0.49887234    -0.12500
F984        F  0.23232267  0.07832738  0.46721411    -0.13000
F985        F  0.26327287  0.16468110  0.53559586    -0.15300
F986        F  0.21745928  0.13096360  0.42884158    -0.13900
F987        F  0.24498980  0.20272505  0.40060622    -0.13900
F988        F  0.17914939  0.25636115  0.45539853    -0.15300
C989        C  0.23453357  0.54933300  0.43903649     0.14800
C990        C  0.24443544  0.52310201  0.42104276     0.01700
C991        C  0.26422507  0.52057272  0.42515730     0.16700
C992        C  0.27345738  0.54069531  0.44963866     0.26100
C993        C  0.26321870  0.56469444  0.46951445    -0.40200
C994        C  0.24390977  0.57012610  0.46276255     0.33200
C995        C  0.23378658  0.49542125  0.40223777     0.01800
F996        F  0.27438857  0.49658969  0.40730207    -0.12500
F997        F  0.23362361  0.59260058  0.48212812    -0.13100
C998        C  0.21948862  0.50448527  0.37927031     0.16700
C999        C  0.20748780  0.47853896  0.36604196     0.26100
C1000       C  0.20994687  0.44289240  0.37460581    -0.40200
C1001       C  0.22497543  0.43352155  0.39575969     0.33100
C1002       C  0.23655433  0.45949994  0.40989373     0.14800
F1003       F  0.21683079  0.53859776  0.37026181    -0.12500
F1004       F  0.22749835  0.39941762  0.40495647    -0.13000
F1005       F  0.19324572  0.48829256  0.34523758    -0.15300
F1006       F  0.24958161  0.44962031  0.43299394    -0.13900
F1007       F  0.21541141  0.55230003  0.43645279    -0.13900
F1008       F  0.29187318  0.53358711  0.45660494    -0.15300
C1009       C  0.91507319  0.56684676  0.44912544     0.14800
C1010       C  0.93069962  0.58827273  0.44152385     0.01700
C1011       C  0.93510838  0.61670722  0.46265149     0.16700
C1012       C  0.92417492  0.62339525  0.49126144     0.26100
C1013       C  0.90878810  0.60139919  0.49941741    -0.40200
C1014       C  0.90426156  0.57321312  0.47789240     0.33200
C1015       C  0.94205590  0.58162689  0.41098311     0.01800
F1016       F  0.94996906  0.63810851  0.45542402    -0.12500
F1017       F  0.88927182  0.55191139  0.48457502    -0.13100
C1018       C  0.93378783  0.58590458  0.37944098     0.16700
C1019       C  0.94457525  0.58131373  0.35039584     0.26100
C1020       C  0.96400856  0.57234176  0.35225076    -0.40200
C1021       C  0.97208052  0.56687932  0.38408967     0.33100
C1022       C  0.96118850  0.57163965  0.41315745     0.14800
F1023       F  0.91530590  0.59555689  0.37678869    -0.12500
F1024       F  0.99063709  0.55804458  0.38730845    -0.13000
F1025       F  0.93587262  0.58589527  0.32046612    -0.15300
F1026       F  0.96932964  0.56662710  0.44351782    -0.13900
F1027       F  0.91048515  0.53936499  0.42891543    -0.13900
F1028       F  0.92907852  0.65059058  0.51158852    -0.15300
C1029       C  0.07911377  0.45089209  0.27526223     0.14800
C1030       C  0.07570486  0.48097986  0.29485980     0.01700
C1031       C  0.08905290  0.49089408  0.31899141     0.16700
C1032       C  0.10518833  0.47018757  0.32458718     0.26100
C1033       C  0.10834345  0.43887022  0.30605356    -0.40200
C1034       C  0.09528709  0.43010813  0.28061474     0.33200
C1035       C  0.05732232  0.49982235  0.29274927     0.01800
F1036       F  0.08596268  0.51979791  0.33835722    -0.12500
F1037       F  0.09770663  0.40073152  0.26163285    -0.13100
C1038       C  0.04125847  0.48531803  0.30823112     0.16700
C1039       C  0.02395001  0.50333598  0.30798755     0.26100
C1040       C  0.02227235  0.53610273  0.29180196    -0.40200
C1041       C  0.03833506  0.55041768  0.27580280     0.33100
C1042       C  0.05578858  0.53254565  0.27659157     0.14800
F1043       F  0.04244916  0.45380417  0.32410053    -0.12500
F1044       F  0.03729936  0.58220875  0.26040971    -0.13000
F1045       F  0.00871286  0.48837680  0.32315177    -0.15300
F1046       F  0.07120825  0.54720395  0.26176545    -0.13900
F1047       F  0.06641755  0.44104636  0.25156863    -0.13900
F1048       F  0.11727658  0.48028293  0.34916763    -0.15300
C1049       C  0.73343635  0.55765847  0.02118688     0.14800
C1050       C  0.73943562  0.52374770  0.03052927     0.01700
C1051       C  0.75710796  0.51138245  0.01922853     0.16700
C1052       C  0.76744344  0.53054905  0.99562151     0.26100
C1053       C  0.76036391  0.56254777  0.98317625    -0.40200
C1054       C  0.74389439  0.57701852  0.99759839     0.33200
C1055       C  0.72569752  0.49816101  0.04455633     0.01800
F1056       F  0.76319453  0.47871709  0.02793752    -0.12500
F1057       F  0.73657206  0.60748429  0.98542806    -0.13100
C1058       C  0.71865272  0.47168020  0.02349038     0.16700
C1059       C  0.70612697  0.44631985  0.03561785     0.26100
C1060       C  0.70026228  0.44659705  0.06947240    -0.40200
C1061       C  0.70706094  0.47383012  0.09047536     0.33100
C1062       C  0.71964415  0.49943551  0.07802149     0.14800
F1063       F  0.72389623  0.47050417  0.99075980    -0.12500
F1064       F  0.70173339  0.47560921  0.12309724    -0.13000
F1065       F  0.69974065  0.42158054  0.01380485    -0.15300
F1066       F  0.72616590  0.52506590  0.09871679    -0.13900
F1067       F  0.71636371  0.57007622  0.03168367    -0.13900
F1068       F  0.78292903  0.51539690  0.98128769    -0.15300
C1069       C  0.81909728  0.62284560  0.85227958     0.14800
C1070       C  0.81045792  0.62878699  0.82103847     0.01700
C1071       C  0.79056562  0.63057239  0.81946569     0.16700
C1072       C  0.77958689  0.62370399  0.84780814     0.26100
C1073       C  0.78818232  0.61369878  0.87805394    -0.40200
C1074       C  0.80805493  0.61474720  0.88046791     0.33200
C1075       C  0.82179015  0.62846889  0.78954443     0.01800
F1076       F  0.78163361  0.63559312  0.78980669    -0.12500
F1077       F  0.81688046  0.60438747  0.90890840    -0.13100
C1078       C  0.83407158  0.60003055  0.78256003     0.16700
C1079       C  0.84329297  0.59753678  0.75160953     0.26100
C1080       C  0.83991938  0.62269284  0.72663478    -0.40200
C1081       C  0.82779790  0.65120279  0.73349750     0.33100
C1082       C  0.81906589  0.65441840  0.76487510     0.14800
F1083       F  0.83647464  0.57369276  0.80509526    -0.12500
F1084       F  0.82472807  0.67632984  0.70999832    -0.13000
F1085       F  0.85490510  0.56967018  0.74549569    -0.15300
F1086       F  0.80790791  0.68286878  0.77113925    -0.13900
F1087       F  0.83827935  0.62261949  0.85499268    -0.13900
F1088       F  0.76040490  0.62373091  0.84490824    -0.15300
C1089       C  0.82075433  0.86783743  0.34215259     0.14800
C1090       C  0.81523246  0.83979273  0.32130701     0.01700
C1091       C  0.79986559  0.81850712  0.33119829     0.16700
C1092       C  0.78960019  0.82640713  0.36047127     0.26100
C1093       C  0.79453721  0.85566097  0.38018184    -0.40200
C1094       C  0.81041299  0.87584613  0.37107079     0.33200
C1095       C  0.82465482  0.83506784  0.28819090     0.01800
F1096       F  0.79428662  0.79108854  0.31172903    -0.12500
F1097       F  0.81490304  0.90530100  0.38869666    -0.13100
C1098       C  0.84439162  0.83074027  0.28620531     0.16700
C1099       C  0.85369215  0.83106377  0.25521745     0.26100
C1100       C  0.84345168  0.83568022  0.22520232    -0.40200
C1101       C  0.82351360  0.83851293  0.22720576     0.33100
C1102       C  0.81425805  0.83834618  0.25836259     0.14800
F1103       F  0.85476032  0.82671855  0.31450978    -0.12500
F1104       F  0.81293954  0.84279301  0.19917933    -0.13000
F1105       F  0.87282346  0.82710347  0.25483473    -0.15300
F1106       F  0.79518857  0.84319443  0.25944913    -0.13900
F1107       F  0.83521259  0.88939757  0.33301805    -0.13900
F1108       F  0.77386493  0.80742075  0.36800241    -0.15300
C1109       C  0.93594510  0.89853782  0.96303843     0.14800
C1110       C  0.94215393  0.86869469  0.94529466     0.01700
C1111       C  0.93782299  0.83505441  0.95766683     0.16700
C1112       C  0.92690049  0.83120289  0.98663085     0.26100
C1113       C  0.92014733  0.86106990  0.00413301    -0.40200
C1114       C  0.92511684  0.89483652  0.99221011     0.33200
C1115       C  0.95223096  0.87243298  0.91292406     0.01800
F1116       F  0.94416571  0.80576263  0.94154255    -0.12500
F1117       F  0.91946780  0.92445537  0.00856635    -0.13100
C1118       C  0.96927991  0.89133277  0.91057613     0.16700
C1119       C  0.97869915  0.89444137  0.87981257     0.26100
C1120       C  0.97127362  0.87843964  0.85069337    -0.40200
C1121       C  0.95402986  0.85968056  0.85337868     0.33100
C1122       C  0.94465336  0.85691961  0.88404309     0.14800
F1123       F  0.97702664  0.90623096  0.93825539    -0.12500
F1124       F  0.94608807  0.84362906  0.82646999    -0.13000
F1125       F  0.99510562  0.91306617  0.87880884    -0.15300
F1126       F  0.92792518  0.83928728  0.88544804    -0.13900
F1127       F  0.93986493  0.93137382  0.95154080    -0.13900
F1128       F  0.92281380  0.79807088  0.99715033    -0.15300
C1129       C  0.79477007  0.68477019  0.96787416     0.14800
C1130       C  0.80737360  0.67448036  0.99327531     0.01700
C1131       C  0.80972338  0.63830258  0.99986090     0.16700
C1132       C  0.79965473  0.61300949  0.98149636     0.26100
C1133       C  0.78695586  0.62334489  0.95631625    -0.40200
C1134       C  0.78464858  0.65945359  0.94964351     0.33200
C1135       C  0.81829945  0.70136763  0.01244512     0.01800
F1136       F  0.82174611  0.62744046  0.02422012    -0.12500
F1137       F  0.77245166  0.67017637  0.92552365    -0.13100
C1138       C  0.80894305  0.72807713  0.03056055     0.16700
C1139       C  0.81927133  0.75333718  0.04863403     0.26100
C1140       C  0.83929064  0.75247810  0.04905589    -0.40200
C1141       C  0.84856984  0.72559544  0.03062556     0.33100
C1142       C  0.83820058  0.70049961  0.01261171     0.14800
F1143       F  0.78970911  0.72938714  0.03118444    -0.12500
F1144       F  0.86777840  0.72330657  0.02989248    -0.13000
F1145       F  0.80957507  0.77870158  0.06552373    -0.15300
F1146       F  0.84768885  0.67558783  0.99473049    -0.13900
F1147       F  0.79257632  0.71935974  0.96021034    -0.13900
F1148       F  0.80288158  0.57837658  0.98742456    -0.15300
C1149       C  0.93237380  0.70659406  0.20096051     0.14800
C1150       C  0.94405404  0.68656141  0.17966765     0.01700
C1151       C  0.94532979  0.69553603  0.14568917     0.16700
C1152       C  0.93472618  0.72384783  0.13306807     0.26100
C1153       C  0.92286073  0.74381932  0.15442532    -0.40200
C1154       C  0.92193234  0.73491073  0.18857298     0.33200
C1155       C  0.95443608  0.65609847  0.19368415     0.01800
F1156       F  0.95656758  0.67654521  0.12470168    -0.12500
F1157       F  0.91051825  0.75301358  0.20999363    -0.13100
C1158       C  0.94410711  0.62815752  0.20761586     0.16700
C1159       C  0.95300188  0.60392482  0.22854697     0.26100
C1160       C  0.97243618  0.60708396  0.23580403    -0.40200
C1161       C  0.98319210  0.63282584  0.21909120     0.33100
C1162       C  0.97419543  0.65733700  0.19816388     0.14800
F1163       F  0.92509540  0.62586473  0.20279856    -0.12500
F1164       F  0.00196980  0.63642203  0.22555718    -0.13000
F1165       F  0.94236250  0.57855153  0.24340540    -0.15300
F1166       F  0.98446263  0.68402247  0.18468804    -0.13900
F1167       F  0.93109839  0.69864060  0.23401086    -0.13900
F1168       F  0.93628545  0.73199044  0.10011398    -0.15300
C1169       C  0.80338156  0.96325275  0.05173245     0.14800
C1170       C  0.80924673  0.99869984  0.05113735     0.01700
C1171       C  0.82674421  0.00758888  0.06565953     0.16700
C1172       C  0.83861008  0.98132302  0.07867602     0.26100
C1173       C  0.83310494  0.94561154  0.07785682    -0.40200
C1174       C  0.81508665  0.93707543  0.06516442     0.33200
C1175       C  0.79832849  0.02483493  0.03113299     0.01800
F1176       F  0.83258081  0.04165802  0.06639668    -0.12500
F1177       F  0.80926149  0.90303180  0.06360204    -0.13100
C1178       C  0.77862785  0.02904596  0.03572253     0.16700
C1179       C  0.76760011  0.04540040  0.01100992     0.26100
C1180       C  0.77618759  0.05800417  0.98163540    -0.40200
C1181       C  0.79605466  0.05765631  0.97908257     0.33100
C1182       C  0.80704208  0.04115051  0.00350930     0.14800
F1183       F  0.76990730  0.01484683  0.06284530    -0.12500
F1184       F  0.80467783  0.07002087  0.95104494    -0.13000
F1185       F  0.74843190  0.04525070  0.01404754    -0.15300
F1186       F  0.82597091  0.03769995  0.99812349    -0.13900
F1187       F  0.78685136  0.95348349  0.03709253    -0.13900
F1188       F  0.85561129  0.99083757  0.09169773    -0.15300
C1189       C  0.08959568  0.11002790  0.99245686     0.14800
C1190       C  0.09878586  0.09440621  0.01980392     0.01700
C1191       C  0.11775920  0.08378095  0.01641447     0.16700
C1192       C  0.12754815  0.08928176  0.98643768     0.26100
C1193       C  0.11850737  0.10544692  0.95898426    -0.40200
C1194       C  0.09930936  0.11542941  0.96231204     0.33200
C1195       C  0.08875059  0.08972828  0.05210721     0.01800
F1196       F  0.12676589  0.06753484  0.04210714    -0.12500
F1197       F  0.08993357  0.13096847  0.93664955    -0.13100
C1198       C  0.07206163  0.06976302  0.05390256     0.16700
C1199       C  0.06263192  0.06535062  0.08444341     0.26100
C1200       C  0.06977701  0.08074782  0.11410055    -0.40200
C1201       C  0.08659776  0.10084071  0.11199070     0.33100
C1202       C  0.09590444  0.10525285  0.08135175     0.14800
F1203       F  0.06501250  0.05400884  0.02605977    -0.12500
F1204       F  0.09411473  0.11664257  0.13940651    -0.13000
F1205       F  0.04647348  0.04597173  0.08464763    -0.15300
F1206       F  0.11181111  0.12533774  0.08012429    -0.13900
F1207       F  0.07129551  0.12083359  0.99519868    -0.13900
F1208       F  0.14581875  0.07816469  0.98428867    -0.15300
C1209       C  0.06213538  0.16093291  0.26880019     0.14800
C1210       C  0.08149948  0.15782299  0.27672977     0.01700
C1211       C  0.09163304  0.12827266  0.26515878     0.16700
C1212       C  0.08300694  0.10406439  0.24350853     0.26100
C1213       C  0.06403949  0.10867965  0.23361476    -0.40200
C1214       C  0.05344420  0.13643658  0.24752796     0.33200
C1215       C  0.09176631  0.18812556  0.29173311     0.01800
F1216       F  0.11031594  0.12451720  0.27244000    -0.12500
F1217       F  0.03522480  0.14181292  0.23794383    -0.13100
C1218       C  0.10171783  0.18519507  0.32203398     0.16700
C1219       C  0.11233266  0.21376042  0.33432435     0.26100
C1220       C  0.11331619  0.24567969  0.31625009    -0.40200
C1221       C  0.10297125  0.24842981  0.28619387     0.33100
C1222       C  0.09245747  0.22003642  0.27412715     0.14800
F1223       F  0.10124966  0.15462103  0.33957805    -0.12500
F1224       F  0.10308899  0.27859179  0.26799128    -0.13000
F1225       F  0.12202913  0.20972959  0.36335649    -0.15300
F1226       F  0.08343987  0.22333438  0.24432191    -0.13900
F1227       F  0.05200489  0.18912093  0.27983154    -0.13900
F1228       F  0.09348270  0.07718700  0.23063836    -0.15300
C1229       C  0.94810375  0.98950690  0.15313902     0.14800
C1230       C  0.96327646  0.97546708  0.17140997     0.01700
C1231       C  0.96188722  0.94108534  0.18401991     0.16700
C1232       C  0.94571945  0.92065716  0.17785992     0.26100
C1233       C  0.93069131  0.93411854  0.15845477    -0.40200
C1234       C  0.93199088  0.96906299  0.14660747     0.33200
C1235       C  0.98128556  0.99528683  0.17436669     0.01800
F1236       F  0.97653708  0.92686744  0.20134487    -0.12500
F1237       F  0.91785637  0.98327730  0.12799568    -0.13100
C1238       C  0.98321761  0.02329854  0.19715360     0.16700
C1239       C  0.00029997  0.04222825  0.19904057     0.26100
C1240       C  0.01562054  0.03366326  0.17776564    -0.40200
C1241       C  0.01356125  0.00525407  0.15520347     0.33100
C1242       C  0.99660854  0.98633622  0.15360475     0.14800
F1243       F  0.96851077  0.03240261  0.21739432    -0.12500
F1244       F  0.02804223  0.99543564  0.13472337    -0.13000
F1245       F  0.00158436  0.06963467  0.22079326    -0.15300
F1246       F  0.99500870  0.95951226  0.13124431    -0.13900
F1247       F  0.94928964  0.02251178  0.14027426    -0.13900
F1248       F  0.94533921  0.88698252  0.18921780    -0.15300
loop_ 
_geom_bond_atom_site_label_1 
_geom_bond_atom_site_label_2 
_geom_bond_distance 
_geom_bond_site_symmetry_2 
_ccdc_geom_bond_type 
C1            N2   1.365       .  A
C1            N6   1.359       .  A
C1         C1240   1.489       .  S
N2            C3   1.364       .  A
C3            N4   1.358       .  A
C3         C1213   1.477       .  S
N4            C5   1.356       .  A
C5            N6   1.356       .  A
C5         C1200   1.494       .  S
Zn7          O11   1.972       .  S
Zn7          O12   2.060       .  S
Zn7          O16   2.043       .  S
Zn7          O23   2.050       .  S
Zn8          O11   1.959       .  S
Zn8          O13   2.007       .  S
Zn8          O15   2.015       .  S
Zn8          O19   2.022       .  S
Zn9          O11   1.961       .  S
Zn9          O14   2.022       .  S
Zn9          O17   2.018       .  S
Zn9          O20   2.016       .  S
Zn10         O11   1.955       .  S
Zn10         O18   2.040       .  S
Zn10         O21   2.014       .  S
Zn10         O22   2.019       .  S
O12          C24   1.279       .  A
O13          C25   1.273       .  A
O14          C26   1.275       .  A
O15          C24   1.274       .  A
O16          C26   1.277       .  A
O17          C25   1.274       .  A
O18          C27   1.276       .  A
O19          C28   1.273       .  A
O20          C27   1.273       .  A
O21          C28   1.273       .  A
O22          C29   1.276       .  A
O23          C29   1.279       .  A
C24        C1140   1.500       .  S
C25        C1113   1.488       .  S
C26        C1173   1.489       .  S
C27        C1233   1.491       .  S
C28        C1153   1.485       .  S
C29        C1100   1.496       .  S
N30          C34   1.363       .  A
N30          C31   1.361       .  A
N30        C1133   1.445       .  S
C31        C1053   1.475       .  S
C31          C32   1.380       .  A
C32          C33   1.367       .  A
C32          H35   1.080       .  S
C33          C34   1.383       .  A
C33          H36   1.083       .  S
C34        C1073   1.483       .  S
C37          N38   1.365   1_455  A
C37          N42   1.364   1_455  A
C37        C1040   1.485       .  S
N38          C39   1.361       .  A
C39          N40   1.354       .  A
C39        C1160   1.478       .  S
N40          C41   1.353       .  A
C41          N42   1.359       .  A
C41        C1020   1.490       .  S
Zn43         O47   1.963       .  S
Zn43         O48   2.021       .  S
Zn43         O52   2.017       .  S
Zn43         O59   2.044       .  S
Zn44         O47   1.956       .  S
Zn44         O49   2.012       .  S
Zn44         O51   2.005       .  S
Zn44         O55   2.014       .  S
Zn45         O47   1.971       .  S
Zn45         O50   2.058       .  S
Zn45         O53   2.048       .  S
Zn45         O56   2.046       .  S
Zn46         O47   1.953       .  S
Zn46         O54   2.015       .  S
Zn46         O57   2.045       .  S
Zn46         O58   2.007       .  S
O48          C60   1.275       .  A
O49          C61   1.273       .  A
O50          C62   1.278       .  A
O51          C60   1.272       .  A
O52          C62   1.274       .  A
O53          C61   1.277       .  A
O54          C63   1.275       .  A
O55          C64   1.272       .  A
O56          C63   1.279       .  A
O57          C64   1.276       .  A
O58          C65   1.273       .  A
O59          C65   1.275       .  A
C60         C960   1.488       .  S
C61        C1000   1.481       .  S
C62         C973   1.495       .  S
C63         C940   1.496       .  S
C64        C1033   1.498       .  S
C65        C1220   1.493       .  S
N66          C70   1.363       .  A
N66          C67   1.363       .  A
N66         C980   1.447       .  S
C67         C893   1.483       .  S
C67          C68   1.384       .  A
C68          C69   1.366       .  A
C68          H71   1.083       .  S
C69          C70   1.379       .  A
C69          H72   1.082       .  S
C70         C913   1.477       .  S
C73          N74   1.362       .  A
C73          N78   1.366       .  A
C73         C880   1.496       .  S
N74          C75   1.356       .  A
C75          N76   1.352       .  A
C75         C953   1.484       .  S
N76          C77   1.352       .  A
C77          N78   1.361       .  A
C77         C853   1.470       .  S
Zn79         O83   1.955       .  S
Zn79         O84   2.003       .  S
Zn79         O88   2.025       .  S
Zn79         O95   2.013       .  S
Zn80         O83   1.969       .  S
Zn80         O85   2.024       .  S
Zn80         O87   2.028       .  S
Zn80         O91   2.032       .  S
Zn81         O83   1.968       .  S
Zn81         O86   2.056       .  S
Zn81         O89   2.036       .  S
Zn81         O92   2.038       .  S
Zn82         O83   1.960       .  S
Zn82         O90   2.010       .  S
Zn82         O93   2.024       .  S
Zn82         O94   2.023       .  S
O84          C96   1.272       .  A
O85          C97   1.275       .  A
O86          C98   1.278       .  A
O87          C96   1.275       .  A
O88          C98   1.274       .  A
O89          C97   1.276       .  A
O90          C99   1.274       .  A
O91         C100   1.274       .  A
O92          C99   1.278       .  A
O93         C100   1.274       .  A
O94         C101   1.273       .  A
O95         C101   1.273       .  A
C96        C1013   1.479       .  S
C97         C793   1.481       .  S
C98         C833   1.491       .  S
C99        C1080   1.474       .  S
C100        C813   1.492       .  S
C101        C873   1.492       .  S
N102        C106   1.364       .  A
N102        C103   1.361       .  A
N102        C800   1.447       .  S
C103        C773   1.478       .  S
C103        C104   1.380       .  A
C104        C105   1.368       .  A
C104        H107   1.086       .  S
C105        C106   1.381       .  A
C105        H108   1.081       .  S
C106       C1093   1.477       .  S
C109        N110   1.361   1_455  A
C109        N114   1.366       .  A
C109        C753   1.486       .  S
N110        C111   1.356       .  A
C111        N112   1.353       .  A
C111       C1120   1.493       .  S
N112        C113   1.355       .  A
C113        N114   1.364   1_655  A
C113        C820   1.481       .  S
Zn115       O119   1.970       .  S
Zn115       O120   2.039       .  S
Zn115       O124   2.034       .  S
Zn115       O131   2.048       .  S
Zn116       O119   1.955       .  S
Zn116       O121   2.001       .  S
Zn116       O123   2.005       .  S
Zn116       O127   2.019       .  S
Zn117       O119   1.972       .  S
Zn117       O122   2.029       .  S
Zn117       O125   2.053       .  S
Zn117       O128   2.031       .  S
Zn118       O119   1.948       .  S
Zn118       O126   2.002       .  S
Zn118       O129   2.007       .  S
Zn118       O130   2.015       .  S
O120        C132   1.277       .  A
O121        C133   1.272       .  A
O122        C134   1.277       .  A
O123        C132   1.273       .  A
O124        C134   1.277       .  A
O125        C133   1.277       .  A
O126        C135   1.273       .  A
O127        C136   1.273       .  A
O128        C135   1.274       .  A
O129        C136   1.272       .  A
O130        C137   1.274       .  A
O131        C137   1.277       .  A
C132        C860   1.492       .  S
C133        C760   1.488       .  S
C134        C920   1.497       .  S
C135        C733   1.479       .  S
C136       C1193   1.488       .  S
C137        C713   1.491       .  S
N138        C142   1.360       .  A
N138        C139   1.360       .  A
N138        C720   1.442       .  S
C139        C700   1.478   1_554  S
C139        C140   1.381       .  A
C140        C141   1.370       .  A
C140        H143   1.085       .  S
C141        C142   1.381       .  A
C141        H144   1.082       .  S
C142        C933   1.479       .  S
C145        N146   1.364       .  A
C145        N150   1.366       .  A
C145        C673   1.493       .  S
N146        C147   1.359       .  A
C147        N148   1.351       .  A
C147        C640   1.489       .  S
N148        C149   1.353       .  A
C149        N150   1.361       .  A
C149        C653   1.477       .  S
Zn151       O155   1.964       .  S
Zn151       O156   2.025       .  S
Zn151       O160   2.014       .  S
Zn151       O167   2.027       .  S
Zn152       O155   1.957       .  S
Zn152       O157   2.033       .  S
Zn152       O159   2.031       .  S
Zn152       O163   2.006       .  S
Zn153       O155   1.957       .  S
Zn153       O158   2.016       .  S
Zn153       O161   2.016       .  S
Zn153       O164   2.003       .  S
Zn154       O155   1.979       .  S
Zn154       O162   2.058       .  S
Zn154       O165   2.055       .  S
Zn154       O166   2.052       .  S
O156        C168   1.274       .  A
O157        C169   1.275       .  A
O158        C170   1.273       .  A
O159        C168   1.275       .  A
O160        C170   1.273       .  A
O161        C169   1.273       .  A
O162        C171   1.278       .  A
O163        C172   1.274       .  A
O164        C171   1.272       .  A
O165        C172   1.278       .  A
O166        C173   1.280       .  A
O167        C173   1.275       .  A
C168        C600   1.496       .  S
C169        C580   1.493   1_554  S
C170        C613   1.476       .  S
C171        C680   1.487       .  S
C172       C1060   1.496       .  S
C173        C553   1.498       .  S
N174        C178   1.357       .  A
N174        C175   1.358       .  A
N174        C593   1.437       .  S
C175       C1180   1.479       .  S
C175        C176   1.383       .  A
C176        C177   1.372       .  A
C176        H179   1.083       .  S
C177        C178   1.380       .  A
C177        H180   1.080       .  S
C178        C533   1.476       .  S
C181        N182   1.359       .  A
C181        N186   1.365       .  A
C181        C513   1.487       .  S
N182        C183   1.352       .  A
C183        N184   1.351       .  A
C183        C493   1.466       .  S
N184        C185   1.357       .  A
C185        N186   1.366       .  A
C185        C620   1.492       .  S
Zn187       O191   1.960       .  S
Zn187       O192   2.015       .  S
Zn187       O196   2.017       .  S
Zn187       O203   1.999       .  S
Zn188       O191   1.957       .  S
Zn188       O193   2.023       .  S
Zn188       O195   2.030       .  S
Zn188       O199   2.009       .  S
Zn189       O191   1.949       .  S
Zn189       O194   1.991       .  S
Zn189       O197   2.008       .  S
Zn189       O200   2.011       .  S
Zn190       O191   1.977       .  S
Zn190       O198   2.064       .  S
Zn190       O201   2.040       .  S
Zn190       O202   2.050       .  S
O192        C204   1.272       .  A
O193        C205   1.275       .  A
O194        C206   1.271       .  A
O195        C204   1.274       .  A
O196        C206   1.273       .  A
O197        C205   1.272       .  A
O198        C207   1.278       .  A
O199        C208   1.275       .  A
O200        C207   1.273       .  A
O201        C208   1.278       .  A
O202        C209   1.278       .  A
O203        C209   1.273       .  A
C204        C520   1.491       .  S
C205        C660   1.484       .  S
C206        C460   1.480       .  S
C207        C480   1.498       .  S
C208        C440   1.476       .  S
C209        C900   1.493       .  S
N210        C214   1.360       .  A
N210        C211   1.360       .  A
N210        C473   1.441       .  S
C211        C993   1.477       .  S
C211        C212   1.381       .  A
C212        C213   1.369       .  A
C212        H215   1.084       .  S
C213        C214   1.381       .  A
C213        H216   1.080       .  S
C214        C413   1.478       .  S
C217        N218   1.367       .  A
C217        N222   1.365       .  A
C217        C400   1.497       .  S
N218        C219   1.362       .  A
C219        N220   1.352       .  A
C219        C573   1.497       .  S
N220        C221   1.353       .  A
C221        N222   1.360       .  A
C221        C373   1.473       .  S
Zn223       O227   1.978       .  S
Zn223       O228   2.057       .  S
Zn223       O232   2.078       .  S
Zn223       O239   2.050       .  S
Zn224       O227   1.959       .  S
Zn224       O229   2.030       .  S
Zn224       O231   2.018       .  S
Zn224       O235   2.036       .  S
Zn225       O227   1.943       .  S
Zn225       O230   2.003       .  S
Zn225       O233   1.984       .  S
Zn225       O236   1.981       .  S
Zn226       O227   1.969       .  S
Zn226       O234   2.015       .  S
Zn226       O237   2.038       .  S
Zn226       O238   2.024       .  S
O228        C240   1.280       .  A
O229        C241   1.274       .  A
O230        C242   1.271       .  A
O231        C240   1.277       .  A
O232        C242   1.279       .  A
O233        C241   1.269       .  A
O234        C243   1.272       .  A
O235        C244   1.275       .  A
O236        C243   1.269       .  A
O237        C244   1.275       .  A
O238        C245   1.276       .  A
O239        C245   1.280       .  A
C240        C693   1.490       .  S
C241        C633   1.487       .  S
C242        C393   1.494       .  S
C243        C360   1.483       .  S
C244        C340   1.500       .  S
C245        C420   1.498       .  S
N246        C250   1.362       .  A
N246        C247   1.358       .  A
N246        C333   1.443   1_554  S
C247        C740   1.474   1_554  S
C247        C248   1.381       .  A
C248        C249   1.367       .  A
C248        H251   1.080       .  S
C249        C250   1.383       .  A
C249        H252   1.082       .  S
C250        C433   1.481       .  S
C253        N254   1.362       .  A
C253        N258   1.361       .  A
C253        C313   1.481       .  S
N254        C255   1.358       .  A
C255        N256   1.354       .  A
C255        C353   1.466       .  S
N256        C257   1.354       .  A
C257        N258   1.357       .  A
C257        C453   1.484       .  S
Zn259       O263   1.947       .  S
Zn259       O264   2.009       .  S
Zn259       O268   2.017       .  S
Zn259       O275   2.004       .  S
Zn260       O263   1.972       .  S
Zn260       O265   2.036       .  S
Zn260       O267   2.051       .  S
Zn260       O271   2.047       .  S
Zn261       O263   1.943       .  S
Zn261       O266   1.991       .  S
Zn261       O269   1.993       .  S
Zn261       O272   1.986       .  S
Zn262       O263   1.968       .  S
Zn262       O270   2.058       .  S
Zn262       O273   2.027       .  S
Zn262       O274   2.045       .  S
O264        C276   1.273       .  A
O265        C277   1.276       .  A
O266        C278   1.270       .  A
O267        C276   1.278       .  A
O268        C278   1.272       .  A
O269        C277   1.270       .  A
O270        C279   1.277       .  A
O271        C280   1.279       .  A
O272        C279   1.270       .  A
O273        C280   1.278       .  A
O274        C281   1.277       .  A
O275        C281   1.273       .  A
C276        C300   1.497       .  S
C277        C380   1.489       .  S
C278        C500   1.479       .  S
C279        C320   1.482       .  S
C280        C540   1.492       .  S
C281        C780   1.490       .  S
N282        C286   1.361       .  A
N282        C283   1.362       .  A
N282        C293   1.440       .  S
C283        C840   1.483       .  S
C283        C284   1.382       .  A
C284        C285   1.369       .  A
C284        H287   1.083       .  S
C285        C286   1.380       .  A
C285        H288   1.081       .  S
C286        C560   1.480       .  S
C289        C290   1.406       .  A
C289        C294   1.403       .  A
C289        F307   1.358       .  S
C290        C295   1.484       .  S
C290        C291   1.405       .  A
C291        C292   1.402       .  A
C291        F296   1.358       .  S
C292        C293   1.405       .  A
C292        F308   1.355       .  S
C293        C294   1.404       .  A
C294        F297   1.357       .  S
C295        C298   1.404       .  A
C295        C302   1.401       .  A
C298        C299   1.405       .  A
C298        F303   1.357       .  S
C299        C300   1.413       .  A
C299        F305   1.357       .  S
C300        C301   1.415       .  A
C301        C302   1.399       .  A
C301        F304   1.358       .  S
C302        F306   1.358       .  S
C309        C310   1.406       .  A
C309        C314   1.401       .  A
C309        F327   1.358       .  S
C310        C315   1.481       .  S
C310        C311   1.404       .  A
C311        C312   1.397       .  A
C311        F316   1.358       .  S
C312        C313   1.409       .  A
C312        F328   1.358       .  S
C313        C314   1.408       .  A
C314        F317   1.358       .  S
C315        C318   1.406       .  A
C315        C322   1.403   1_565  A
C318        C319   1.404       .  A
C318        F323   1.358       .  S
C319        C320   1.408   1_565  A
C319        F325   1.357       .  S
C320        C321   1.409       .  A
C321        C322   1.396       .  A
C321        F324   1.358       .  S
C322        F326   1.358       .  S
C329        C330   1.410       .  A
C329        C334   1.402   1_556  A
C329        F347   1.357       .  S
C330        C335   1.495       .  S
C330        C331   1.409       .  A
C331        C332   1.404       .  A
C331        F336   1.358       .  S
C332        C333   1.406       .  A
C332        F348   1.357       .  S
C333        C334   1.403   1_556  A
C334        F337   1.357       .  S
C335        C338   1.408       .  A
C335        C342   1.406       .  A
C338        C339   1.406       .  A
C338        F343   1.358       .  S
C339        C340   1.413       .  A
C339        F345   1.358       .  S
C340        C341   1.413       .  A
C341        C342   1.402       .  A
C341        F344   1.358       .  S
C342        F346   1.358       .  S
C349        C350   1.402       .  A
C349        C354   1.391       .  A
C349        F367   1.359       .  S
C350        C355   1.468       .  S
C350        C351   1.403       .  A
C351        C352   1.402       .  A
C351        F356   1.357       .  S
C352        C353   1.406       .  A
C352        F368   1.357       .  S
C353        C354   1.403       .  A
C354        F357   1.358       .  S
C355        C358   1.399       .  A
C355        C362   1.402       .  A
C358        C359   1.394       .  A
C358        F363   1.358       .  S
C359        C360   1.413       .  A
C359        F365   1.358       .  S
C360        C361   1.411       .  A
C361        C362   1.397       .  A
C361        F364   1.358       .  S
C362        F366   1.358       .  S
C369        C370   1.403       .  A
C369        C374   1.393       .  A
C369        F387   1.358       .  S
C370        C375   1.477       .  S
C370        C371   1.406       .  A
C371        C372   1.405       .  A
C371        F376   1.357       .  S
C372        C373   1.406       .  A
C372        F388   1.357       .  S
C373        C374   1.405       .  A
C374        F377   1.358       .  S
C375        C378   1.401       .  A
C375        C382   1.404       .  A
C378        C379   1.398       .  A
C378        F383   1.358       .  S
C379        C380   1.414       .  A
C379        F385   1.358       .  S
C380        C381   1.411       .  A
C381        C382   1.400       .  A
C381        F384   1.358       .  S
C382        F386   1.358       .  S
C389        C390   1.411       .  A
C389        C394   1.407       .  A
C389        F407   1.357       .  S
C390        C395   1.499       .  S
C390        C391   1.408       .  A
C391        C392   1.401       .  A
C391        F396   1.358       .  S
C392        C393   1.411       .  A
C392        F408   1.358       .  S
C393        C394   1.409       .  A
C394        F397   1.357       .  S
C395        C398   1.409       .  A
C395        C402   1.409       .  A
C398        C399   1.407       .  A
C398        F403   1.358       .  S
C399        C400   1.413       .  A
C399        F405   1.358       .  S
C400        C401   1.410       .  A
C401        C402   1.400       .  A
C401        F404   1.357       .  S
C402        F406   1.358       .  S
C409        C410   1.405       .  A
C409        C414   1.401       .  A
C409        F427   1.358       .  S
C410        C415   1.487       .  S
C410        C411   1.407       .  A
C411        C412   1.403       .  A
C411        F416   1.358       .  S
C412        C413   1.405       .  A
C412        F428   1.357       .  S
C413        C414   1.407       .  A
C414        F417   1.358       .  S
C415        C418   1.406       .  A
C415        C422   1.403       .  A
C418        C419   1.401       .  A
C418        F423   1.358       .  S
C419        C420   1.412       .  A
C419        F425   1.358       .  S
C420        C421   1.416       .  A
C421        C422   1.403       .  A
C421        F424   1.358       .  S
C422        F426   1.358       .  S
C429        C430   1.405       .  A
C429        C434   1.396       .  A
C429        F447   1.358       .  S
C430        C435   1.488       .  S
C430        C431   1.410       .  A
C431        C432   1.403       .  A
C431        F436   1.358       .  S
C432        C433   1.404       .  A
C432        F448   1.357       .  S
C433        C434   1.408       .  A
C434        F437   1.359       .  S
C435        C438   1.409       .  A
C435        C442   1.408       .  A
C438        C439   1.403       .  A
C438        F443   1.358       .  S
C439        C440   1.405       .  A
C439        F445   1.358       .  S
C440        C441   1.405       .  A
C441        C442   1.396       .  A
C441        F444   1.358       .  S
C442        F446   1.358       .  S
C449        C450   1.403       .  A
C449        C454   1.394       .  A
C449        F467   1.358       .  S
C450        C455   1.477       .  S
C450        C451   1.403       .  A
C451        C452   1.399       .  A
C451        F456   1.358       .  S
C452        C453   1.411       .  A
C452        F468   1.357       .  S
C453        C454   1.411       .  A
C454        F457   1.358       .  S
C455        C458   1.405       .  A
C455        C462   1.403       .  A
C458        C459   1.401       .  A
C458        F463   1.358       .  S
C459        C460   1.411       .  A
C459        F465   1.358       .  S
C460        C461   1.409       .  A
C461        C462   1.392       .  A
C461        F464   1.358       .  S
C462        F466   1.358       .  S
C469        C470   1.408       .  A
C469        C474   1.403       .  A
C469        F487   1.358       .  S
C470        C475   1.490       .  S
C470        C471   1.407       .  A
C471        C472   1.404       .  A
C471        F476   1.358       .  S
C472        C473   1.404       .  A
C472        F488   1.357       .  S
C473        C474   1.403       .  A
C474        F477   1.356       .  S
C475        C478   1.407       .  A
C475        C482   1.403       .  A
C478        C479   1.407       .  A
C478        F483   1.357       .  S
C479        C480   1.412       .  A
C479        F485   1.357       .  S
C480        C481   1.414       .  A
C481        C482   1.400       .  A
C481        F484   1.358       .  S
C482        F486   1.358       .  S
C489        C490   1.407       .  A
C489        C494   1.398       .  A
C489        F507   1.358       .  S
C490        C495   1.481       .  S
C490        C491   1.408       .  A
C491        C492   1.397       .  A
C491        F496   1.358       .  S
C492        C493   1.402       .  A
C492        F508   1.358       .  S
C493        C494   1.403       .  A
C494        F497   1.358       .  S
C495        C498   1.407       .  A
C495        C502   1.404       .  A
C498        C499   1.397       .  A
C498        F503   1.358       .  S
C499        C500   1.407       .  A
C499        F505   1.358       .  S
C500        C501   1.410       .  A
C501        C502   1.396       .  A
C501        F504   1.358       .  S
C502        F506   1.358       .  S
C509        C510   1.400   1_565  A
C509        C514   1.393   1_565  A
C509        F527   1.358       .  S
C510        C515   1.478   1_545  S
C510        C511   1.404       .  A
C511        C512   1.406       .  A
C511        F516   1.357       .  S
C512        C513   1.412       .  A
C512        F528   1.357       .  S
C513        C514   1.411       .  A
C514        F517   1.358   1_545  S
C515        C518   1.402   1_565  A
C515        C522   1.402       .  A
C518        C519   1.402   1_545  A
C518        F523   1.358       .  S
C519        C520   1.413       .  A
C519        F525   1.358       .  S
C520        C521   1.411       .  A
C521        C522   1.399       .  A
C521        F524   1.358       .  S
C522        F526   1.358       .  S
C529        C530   1.406       .  A
C529        C534   1.399       .  A
C529        F547   1.358       .  S
C530        C535   1.485       .  S
C530        C531   1.406       .  A
C531        C532   1.403       .  A
C531        F536   1.357       .  S
C532        C533   1.405       .  A
C532        F548   1.358       .  S
C533        C534   1.404       .  A
C534        F537   1.358       .  S
C535        C538   1.405       .  A
C535        C542   1.404       .  A
C538        C539   1.407       .  A
C538        F543   1.357       .  S
C539        C540   1.413       .  A
C539        F545   1.357       .  S
C540        C541   1.410       .  A
C541        C542   1.397       .  A
C541        F544   1.358       .  S
C542        F546   1.358       .  S
C549        C550   1.407       .  A
C549        C554   1.400       .  A
C549        F567   1.358       .  S
C550        C555   1.492       .  S
C550        C551   1.405       .  A
C551        C552   1.406       .  A
C551        F556   1.358       .  S
C552        C553   1.416       .  A
C552        F568   1.358       .  S
C553        C554   1.410       .  A
C554        F557   1.357       .  S
C555        C558   1.407       .  A
C555        C562   1.407       .  A
C558        C559   1.402       .  A
C558        F563   1.358       .  S
C559        C560   1.405       .  A
C559        F565   1.357       .  S
C560        C561   1.407       .  A
C561        C562   1.404       .  A
C561        F564   1.358       .  S
C562        F566   1.358       .  S
C569        C570   1.399       .  A
C569        C574   1.398       .  A
C569        F587   1.358       .  S
C570        C575   1.480       .  S
C570        C571   1.403       .  A
C571        C572   1.403       .  A
C571        F576   1.357       .  S
C572        C573   1.412       .  A
C572        F588   1.357       .  S
C573        C574   1.418       .  A
C574        F577   1.358       .  S
C575        C578   1.404       .  A
C575        C582   1.401       .  A
C578        C579   1.403       .  A
C578        F583   1.358       .  S
C579        C580   1.413       .  A
C579        F585   1.358       .  S
C580        C581   1.413       .  A
C581        C582   1.398       .  A
C581        F584   1.358   1_556  S
C582        F586   1.358       .  S
C589        C590   1.407   1_556  A
C589        C594   1.399       .  A
C589        F607   1.358   1_556  S
C590        C595   1.485       .  S
C590        C591   1.407   1_554  A
C591        C592   1.403       .  A
C591        F596   1.357       .  S
C592        C593   1.403       .  A
C592        F608   1.357       .  S
C593        C594   1.402       .  A
C594        F597   1.357       .  S
C595        C598   1.404       .  A
C595        C602   1.404       .  A
C598        C599   1.401       .  A
C598        F603   1.358       .  S
C599        C600   1.414       .  A
C599        F605   1.358       .  S
C600        C601   1.414       .  A
C601        C602   1.401       .  A
C601        F604   1.358       .  S
C602        F606   1.358   1_554  S
C609        C610   1.405       .  A
C609        C614   1.399       .  A
C609        F627   1.358       .  S
C610        C615   1.479       .  S
C610        C611   1.405       .  A
C611        C612   1.398       .  A
C611        F616   1.358       .  S
C612        C613   1.406       .  A
C612        F628   1.358       .  S
C613        C614   1.407       .  A
C614        F617   1.358       .  S
C615        C618   1.401       .  A
C615        C622   1.404       .  A
C618        C619   1.395       .  A
C618        F623   1.359       .  S
C619        C620   1.415       .  A
C619        F625   1.358       .  S
C620        C621   1.412       .  A
C621        C622   1.402       .  A
C621        F624   1.357       .  S
C622        F626   1.358       .  S
C629        C630   1.405       .  A
C629        C634   1.400   1_554  A
C629        F647   1.358       .  S
C630        C635   1.479       .  S
C630        C631   1.401   1_554  A
C631        C632   1.394       .  A
C631        F636   1.358       .  S
C632        C633   1.414       .  A
C632        F648   1.358       .  S
C633        C634   1.411       .  A
C634        F637   1.358       .  S
C635        C638   1.405       .  A
C635        C642   1.401       .  A
C638        C639   1.399       .  A
C638        F643   1.358       .  S
C639        C640   1.410       .  A
C639        F645   1.357       .  S
C640        C641   1.416       .  A
C641        C642   1.397       .  A
C641        F644   1.358       .  S
C642        F646   1.358       .  S
C649        C650   1.402       .  A
C649        C654   1.394       .  A
C649        F667   1.358       .  S
C650        C655   1.478       .  S
C650        C651   1.406       .  A
C651        C652   1.404       .  A
C651        F656   1.357       .  S
C652        C653   1.407       .  A
C652        F668   1.357       .  S
C653        C654   1.408       .  A
C654        F657   1.359       .  S
C655        C658   1.403       .  A
C655        C662   1.404       .  A
C658        C659   1.400       .  A
C658        F663   1.358       .  S
C659        C660   1.411       .  A
C659        F665   1.358       .  S
C660        C661   1.409       .  A
C661        C662   1.398       .  A
C661        F664   1.358       .  S
C662        F666   1.358       .  S
C669        C670   1.404       .  A
C669        C674   1.400       .  A
C669        F687   1.358       .  S
C670        C675   1.486       .  S
C670        C671   1.405       .  A
C671        C672   1.403       .  A
C671        F676   1.358       .  S
C672        C673   1.412       .  A
C672        F688   1.357       .  S
C673        C674   1.412       .  A
C674        F677   1.358       .  S
C675        C678   1.407       .  A
C675        C682   1.404       .  A
C678        C679   1.405       .  A
C678        F683   1.358       .  S
C679        C680   1.409       .  A
C679        F685   1.358       .  S
C680        C681   1.410       .  A
C681        C682   1.400       .  A
C681        F684   1.358       .  S
C682        F686   1.358       .  S
C689        C690   1.407       .  A
C689        C694   1.406       .  A
C689        F707   1.358       .  S
C690        C695   1.489       .  S
C690        C691   1.406       .  A
C691        C692   1.398       .  A
C691        F696   1.358       .  S
C692        C693   1.409       .  A
C692        F708   1.358       .  S
C693        C694   1.411       .  A
C694        F697   1.358       .  S
C695        C698   1.407       .  A
C695        C702   1.408       .  A
C698        C699   1.401       .  A
C698        F703   1.358       .  S
C699        C700   1.405       .  A
C699        F705   1.358   1_556  S
C700        C701   1.405       .  A
C701        C702   1.402       .  A
C701        F704   1.358       .  S
C702        F706   1.358       .  S
C709        C710   1.405       .  A
C709        C714   1.405       .  A
C709        F727   1.358       .  S
C710        C715   1.484       .  S
C710        C711   1.403       .  A
C711        C712   1.399       .  A
C711        F716   1.358       .  S
C712        C713   1.412       .  A
C712        F728   1.358       .  S
C713        C714   1.411       .  A
C714        F717   1.358       .  S
C715        C718   1.406       .  A
C715        C722   1.405       .  A
C718        C719   1.401       .  A
C718        F723   1.358       .  S
C719        C720   1.405   1_556  A
C719        F725   1.356   1_556  S
C720        C721   1.407   1_554  A
C721        C722   1.402       .  A
C721        F724   1.357       .  S
C722        F726   1.358       .  S
C729        C730   1.403       .  A
C729        C734   1.403   1_565  A
C729        F747   1.357       .  S
C730        C735   1.475       .  S
C730        C731   1.403       .  A
C731        C732   1.395   1_565  A
C731        F736   1.359       .  S
C732        C733   1.407       .  A
C732        F748   1.359       .  S
C733        C734   1.409       .  A
C734        F737   1.357       .  S
C735        C738   1.402       .  A
C735        C742   1.405       .  A
C738        C739   1.396       .  A
C738        F743   1.358   1_565  S
C739        C740   1.405       .  A
C739        F745   1.358       .  S
C740        C741   1.405       .  A
C741        C742   1.402       .  A
C741        F744   1.358       .  S
C742        F746   1.357       .  S
C749        C750   1.407       .  A
C749        C754   1.404       .  A
C749        F767   1.358       .  S
C750        C755   1.485       .  S
C750        C751   1.404       .  A
C751        C752   1.399       .  A
C751        F756   1.358       .  S
C752        C753   1.410       .  A
C752        F768   1.358       .  S
C753        C754   1.408       .  A
C754        F757   1.357       .  S
C755        C758   1.404   1_565  A
C755        C762   1.406       .  A
C758        C759   1.399       .  A
C758        F763   1.358       .  S
C759        C760   1.411       .  A
C759        F765   1.358       .  S
C760        C761   1.410   1_545  A
C761        C762   1.404       .  A
C761        F764   1.358       .  S
C762        F766   1.358       .  S
C769        C770   1.406       .  A
C769        C774   1.403       .  A
C769        F787   1.357       .  S
C770        C775   1.480       .  S
C770        C771   1.404       .  A
C771        C772   1.397       .  A
C771        F776   1.358       .  S
C772        C773   1.405       .  A
C772        F788   1.358       .  S
C773        C774   1.405       .  A
C774        F777   1.358       .  S
C775        C778   1.403       .  A
C775        C782   1.404       .  A
C778        C779   1.396   1_565  A
C778        F783   1.359   1_565  S
C779        C780   1.412       .  A
C779        F785   1.358       .  S
C780        C781   1.412   1_545  A
C781        C782   1.404       .  A
C781        F784   1.357       .  S
C782        F786   1.357       .  S
C789        C790   1.410       .  A
C789        C794   1.401       .  A
C789        F807   1.358       .  S
C790        C795   1.497       .  S
C790        C791   1.411       .  A
C791        C792   1.403       .  A
C791        F796   1.357       .  S
C792        C793   1.405       .  A
C792        F808   1.358       .  S
C793        C794   1.405       .  A
C794        F797   1.358       .  S
C795        C798   1.411       .  A
C795        C802   1.409       .  A
C798        C799   1.401       .  A
C798        F803   1.358       .  S
C799        C800   1.405       .  A
C799        F805   1.354       .  S
C800        C801   1.408       .  A
C801        C802   1.402       .  A
C801        F804   1.357       .  S
C802        F806   1.358       .  S
C809        C810   1.404       .  A
C809        C814   1.397       .  A
C809        F827   1.358       .  S
C810        C815   1.484       .  S
C810        C811   1.403       .  A
C811        C812   1.406       .  A
C811        F816   1.357       .  S
C812        C813   1.414       .  A
C812        F828   1.358       .  S
C813        C814   1.410       .  A
C814        F817   1.358       .  S
C815        C818   1.407       .  A
C815        C822   1.403       .  A
C818        C819   1.406       .  A
C818        F823   1.357       .  S
C819        C820   1.407       .  A
C819        F825   1.357   1_655  S
C820        C821   1.408       .  A
C821        C822   1.396       .  A
C821        F824   1.358       .  S
C822        F826   1.358       .  S
C829        C830   1.409       .  A
C829        C834   1.403       .  A
C829        F847   1.358       .  S
C830        C835   1.495       .  S
C830        C831   1.408       .  A
C831        C832   1.405       .  A
C831        F836   1.358       .  S
C832        C833   1.410       .  A
C832        F848   1.358       .  S
C833        C834   1.408       .  A
C834        F837   1.358       .  S
C835        C838   1.407       .  A
C835        C842   1.411       .  A
C838        C839   1.400       .  A
C838        F843   1.358       .  S
C839        C840   1.407       .  A
C839        F845   1.358       .  S
C840        C841   1.405       .  A
C841        C842   1.406       .  A
C841        F844   1.357       .  S
C842        F846   1.357       .  S
C849        C850   1.406       .  A
C849        C854   1.403       .  A
C849        F867   1.357       .  S
C850        C855   1.479       .  S
C850        C851   1.404       .  A
C851        C852   1.396       .  A
C851        F856   1.358       .  S
C852        C853   1.405       .  A
C852        F868   1.358       .  S
C853        C854   1.404       .  A
C854        F857   1.357       .  S
C855        C858   1.401       .  A
C855        C862   1.404       .  A
C858        C859   1.399       .  A
C858        F863   1.358       .  S
C859        C860   1.415       .  A
C859        F865   1.358       .  S
C860        C861   1.412       .  A
C861        C862   1.401       .  A
C861        F864   1.358       .  S
C862        F866   1.358       .  S
C869        C870   1.403       .  A
C869        C874   1.403       .  A
C869        F887   1.358       .  S
C870        C875   1.482       .  S
C870        C871   1.403       .  A
C871        C872   1.397       .  A
C871        F876   1.358       .  S
C872        C873   1.413       .  A
C872        F888   1.358       .  S
C873        C874   1.414       .  A
C874        F877   1.358       .  S
C875        C878   1.404       .  A
C875        C882   1.401       .  A
C878        C879   1.404   1_655  A
C878        F883   1.358       .  S
C879        C880   1.415       .  A
C879        F885   1.357       .  S
C880        C881   1.415       .  A
C881        C882   1.395   1_455  A
C881        F884   1.357       .  S
C882        F886   1.359       .  S
C889        C890   1.412       .  A
C889        C894   1.406       .  A
C889        F907   1.358       .  S
C890        C895   1.490   1_545  S
C890        C891   1.405   1_545  A
C891        C892   1.394   1_565  A
C891        F896   1.358       .  S
C892        C893   1.407       .  A
C892        F908   1.359   1_545  S
C893        C894   1.404       .  A
C894        F897   1.357       .  S
C895        C898   1.406   1_565  A
C895        C902   1.408       .  A
C898        C899   1.397   1_545  A
C898        F903   1.358       .  S
C899        C900   1.413       .  A
C899        F905   1.358       .  S
C900        C901   1.411       .  A
C901        C902   1.403       .  A
C901        F904   1.358       .  S
C902        F906   1.358       .  S
C909        C910   1.407       .  A
C909        C914   1.401       .  A
C909        F927   1.358       .  S
C910        C915   1.489       .  S
C910        C911   1.408       .  A
C911        C912   1.401       .  A
C911        F916   1.358       .  S
C912        C913   1.404       .  A
C912        F928   1.358       .  S
C913        C914   1.406       .  A
C914        F917   1.358       .  S
C915        C918   1.404       .  A
C915        C922   1.406       .  A
C918        C919   1.404       .  A
C918        F923   1.358       .  S
C919        C920   1.415       .  A
C919        F925   1.357       .  S
C920        C921   1.412       .  A
C921        C922   1.399       .  A
C921        F924   1.358       .  S
C922        F926   1.358       .  S
C929        C930   1.405       .  A
C929        C934   1.396       .  A
C929        F947   1.358       .  S
C930        C935   1.486       .  S
C930        C931   1.409       .  A
C931        C932   1.406       .  A
C931        F936   1.357       .  S
C932        C933   1.404       .  A
C932        F948   1.357       .  S
C933        C934   1.405       .  A
C934        F937   1.358       .  S
C935        C938   1.404       .  A
C935        C942   1.405       .  A
C938        C939   1.401       .  A
C938        F943   1.358       .  S
C939        C940   1.415       .  A
C939        F945   1.358       .  S
C940        C941   1.412       .  A
C941        C942   1.401       .  A
C941        F944   1.357       .  S
C942        F946   1.358       .  S
C949        C950   1.399       .  A
C949        C954   1.395       .  A
C949        F967   1.358       .  S
C950        C955   1.471       .  S
C950        C951   1.402       .  A
C951        C952   1.400       .  A
C951        F956   1.358       .  S
C952        C953   1.412       .  A
C952        F968   1.357       .  S
C953        C954   1.412       .  A
C954        F957   1.358       .  S
C955        C958   1.401       .  A
C955        C962   1.400       .  A
C958        C959   1.396       .  A
C958        F963   1.358       .  S
C959        C960   1.412       .  A
C959        F965   1.358       .  S
C960        C961   1.416       .  A
C961        C962   1.399       .  A
C961        F964   1.358       .  S
C962        F966   1.358       .  S
C969        C970   1.405       .  A
C969        C974   1.407       .  A
C969        F987   1.358       .  S
C970        C975   1.485       .  S
C970        C971   1.401       .  A
C971        C972   1.399       .  A
C971        F976   1.358       .  S
C972        C973   1.413       .  A
C972        F988   1.358       .  S
C973        C974   1.413       .  A
C974        F977   1.357       .  S
C975        C978   1.403       .  A
C975        C982   1.406       .  A
C978        C979   1.401       .  A
C978        F983   1.358       .  S
C979        C980   1.409       .  A
C979        F985   1.357       .  S
C980        C981   1.408       .  A
C981        C982   1.405       .  A
C981        F984   1.356       .  S
C982        F986   1.357       .  S
C989        C990   1.410       .  A
C989        C994   1.400       .  A
C989       F1007   1.358       .  S
C990        C995   1.495       .  S
C990        C991   1.409       .  A
C991        C992   1.402       .  A
C991        F996   1.358       .  S
C992        C993   1.405       .  A
C992       F1008   1.356       .  S
C993        C994   1.404       .  A
C994        F997   1.358       .  S
C995        C998   1.409       .  A
C995       C1002   1.411       .  A
C998        C999   1.403       .  A
C998       F1003   1.358       .  S
C999       C1000   1.407       .  A
C999       F1005   1.358       .  S
C1000      C1001   1.404       .  A
C1001      C1002   1.400       .  A
C1001      F1004   1.358       .  S
C1002      F1006   1.358       .  S
C1009      C1010   1.404       .  A
C1009      C1014   1.398       .  A
C1009      F1027   1.358       .  S
C1010      C1015   1.479       .  S
C1010      C1011   1.405       .  A
C1011      C1012   1.400       .  A
C1011      F1016   1.358       .  S
C1012      C1013   1.408       .  A
C1012      F1028   1.358       .  S
C1013      C1014   1.409       .  A
C1014      F1017   1.358       .  S
C1015      C1018   1.400       .  A
C1015      C1022   1.404       .  A
C1018      C1019   1.396       .  A
C1018      F1023   1.358       .  S
C1019      C1020   1.414       .  A
C1019      F1025   1.358       .  S
C1020      C1021   1.411       .  A
C1021      C1022   1.402       .  A
C1021      F1024   1.357       .  S
C1022      F1026   1.358       .  S
C1029      C1030   1.403       .  A
C1029      C1034   1.403       .  A
C1029      F1047   1.358       .  S
C1030      C1035   1.483       .  S
C1030      C1031   1.401       .  A
C1031      C1032   1.401       .  A
C1031      F1036   1.358       .  S
C1032      C1033   1.416       .  A
C1032      F1048   1.358       .  S
C1033      C1034   1.413       .  A
C1034      F1037   1.357       .  S
C1035      C1038   1.403       .  A
C1035      C1042   1.405       .  A
C1038      C1039   1.399       .  A
C1038      F1043   1.358       .  S
C1039      C1040   1.408       .  A
C1039      F1045   1.358       .  S
C1040      C1041   1.409       .  A
C1041      C1042   1.405       .  A
C1041      F1044   1.358       .  S
C1042      F1046   1.357       .  S
C1049      C1050   1.406       .  A
C1049      C1054   1.405   1_554  A
C1049      F1067   1.357       .  S
C1050      C1055   1.483       .  S
C1050      C1051   1.404       .  A
C1051      C1052   1.397   1_554  A
C1051      F1056   1.358       .  S
C1052      C1053   1.405       .  A
C1052      F1068   1.358       .  S
C1053      C1054   1.406       .  A
C1054      F1057   1.358       .  S
C1055      C1058   1.402       .  A
C1055      C1062   1.403       .  A
C1058      C1059   1.394       .  A
C1058      F1063   1.359   1_554  S
C1059      C1060   1.414       .  A
C1059      F1065   1.358       .  S
C1060      C1061   1.415       .  A
C1061      C1062   1.408       .  A
C1061      F1064   1.357       .  S
C1062      F1066   1.357       .  S
C1069      C1070   1.410       .  A
C1069      C1074   1.402       .  A
C1069      F1087   1.358       .  S
C1070      C1075   1.489       .  S
C1070      C1071   1.406       .  A
C1071      C1072   1.395       .  A
C1071      F1076   1.358       .  S
C1072      C1073   1.407       .  A
C1072      F1088   1.358       .  S
C1073      C1074   1.406       .  A
C1074      F1077   1.357       .  S
C1075      C1078   1.410       .  A
C1075      C1082   1.409       .  A
C1078      C1079   1.399       .  A
C1078      F1083   1.358       .  S
C1079      C1080   1.404       .  A
C1079      F1085   1.358       .  S
C1080      C1081   1.404       .  A
C1081      C1082   1.400       .  A
C1081      F1084   1.358       .  S
C1082      F1086   1.358       .  S
C1089      C1090   1.406       .  A
C1089      C1094   1.397       .  A
C1089      F1107   1.358       .  S
C1090      C1095   1.489       .  S
C1090      C1091   1.409       .  A
C1091      C1092   1.405       .  A
C1091      F1096   1.357       .  S
C1092      C1093   1.405       .  A
C1092      F1108   1.358       .  S
C1093      C1094   1.405       .  A
C1094      F1097   1.358       .  S
C1095      C1098   1.404       .  A
C1095      C1102   1.407       .  A
C1098      C1099   1.400       .  A
C1098      F1103   1.358       .  S
C1099      C1100   1.413       .  A
C1099      F1105   1.358       .  S
C1100      C1101   1.412       .  A
C1101      C1102   1.404       .  A
C1101      F1104   1.358       .  S
C1102      F1106   1.358       .  S
C1109      C1110   1.404       .  A
C1109      C1114   1.399       .  A
C1109      F1127   1.358       .  S
C1110      C1115   1.481       .  S
C1110      C1111   1.404       .  A
C1111      C1112   1.397       .  A
C1111      F1116   1.358       .  S
C1112      C1113   1.412   1_556  A
C1112      F1128   1.358       .  S
C1113      C1114   1.413   1_554  A
C1114      F1117   1.358   1_556  S
C1115      C1118   1.404       .  A
C1115      C1122   1.402       .  A
C1118      C1119   1.401       .  A
C1118      F1123   1.358       .  S
C1119      C1120   1.414       .  A
C1119      F1125   1.357       .  S
C1120      C1121   1.414       .  A
C1121      C1122   1.395       .  A
C1121      F1124   1.358       .  S
C1122      F1126   1.358       .  S
C1129      C1130   1.407       .  A
C1129      C1134   1.402       .  A
C1129      F1147   1.358       .  S
C1130      C1135   1.492   1_556  S
C1130      C1131   1.408       .  A
C1131      C1132   1.402       .  A
C1131      F1136   1.358   1_556  S
C1132      C1133   1.406       .  A
C1132      F1148   1.355       .  S
C1133      C1134   1.406       .  A
C1134      F1137   1.357       .  S
C1135      C1138   1.407       .  A
C1135      C1142   1.404       .  A
C1138      C1139   1.405       .  A
C1138      F1143   1.358       .  S
C1139      C1140   1.413       .  A
C1139      F1145   1.357       .  S
C1140      C1141   1.415       .  A
C1141      C1142   1.401       .  A
C1141      F1144   1.358       .  S
C1142      F1146   1.358   1_554  S
C1149      C1150   1.404       .  A
C1149      C1154   1.395       .  A
C1149      F1167   1.358       .  S
C1150      C1155   1.480       .  S
C1150      C1151   1.403       .  A
C1151      C1152   1.404       .  A
C1151      F1156   1.357       .  S
C1152      C1153   1.412       .  A
C1152      F1168   1.358       .  S
C1153      C1154   1.408       .  A
C1154      F1157   1.358       .  S
C1155      C1158   1.403       .  A
C1155      C1162   1.407       .  A
C1158      C1159   1.395       .  A
C1158      F1163   1.358       .  S
C1159      C1160   1.407       .  A
C1159      F1165   1.358       .  S
C1160      C1161   1.406       .  A
C1161      C1162   1.405       .  A
C1161      F1164   1.357   1_655  S
C1162      F1166   1.357       .  S
C1169      C1170   1.408       .  A
C1169      C1174   1.400       .  A
C1169      F1187   1.358       .  S
C1170      C1175   1.491   1_565  S
C1170      C1171   1.407   1_565  A
C1171      C1172   1.403   1_545  A
C1171      F1176   1.358       .  S
C1172      C1173   1.411       .  A
C1172      F1188   1.358       .  S
C1173      C1174   1.408       .  A
C1174      F1177   1.358       .  S
C1175      C1178   1.410       .  A
C1175      C1182   1.407       .  A
C1178      C1179   1.404       .  A
C1178      F1183   1.358       .  S
C1179      C1180   1.405   1_554  A
C1179      F1185   1.357       .  S
C1180      C1181   1.405       .  A
C1181      C1182   1.397   1_556  A
C1181      F1184   1.358       .  S
C1182      F1186   1.358   1_554  S
C1189      C1190   1.405   1_556  A
C1189      C1194   1.400       .  A
C1189      F1207   1.358       .  S
C1190      C1195   1.482       .  S
C1190      C1191   1.403       .  A
C1191      C1192   1.397   1_554  A
C1191      F1196   1.358       .  S
C1192      C1193   1.412       .  A
C1192      F1208   1.358       .  S
C1193      C1194   1.411       .  A
C1194      F1197   1.358       .  S
C1195      C1198   1.403       .  A
C1195      C1202   1.403       .  A
C1198      C1199   1.399       .  A
C1198      F1203   1.358       .  S
C1199      C1200   1.415       .  A
C1199      F1205   1.357       .  S
C1200      C1201   1.414       .  A
C1201      C1202   1.398       .  A
C1201      F1204   1.358       .  S
C1202      F1206   1.358       .  S
C1209      C1210   1.408       .  A
C1209      C1214   1.402       .  A
C1209      F1227   1.358       .  S
C1210      C1215   1.486       .  S
C1210      C1211   1.406       .  A
C1211      C1212   1.402       .  A
C1211      F1216   1.358       .  S
C1212      C1213   1.407       .  A
C1212      F1228   1.358       .  S
C1213      C1214   1.404       .  A
C1214      F1217   1.358       .  S
C1215      C1218   1.406       .  A
C1215      C1222   1.403       .  A
C1218      C1219   1.407       .  A
C1218      F1223   1.358       .  S
C1219      C1220   1.414       .  A
C1219      F1225   1.358       .  S
C1220      C1221   1.412       .  A
C1221      C1222   1.395       .  A
C1221      F1224   1.358       .  S
C1222      F1226   1.358       .  S
C1229      C1230   1.403       .  A
C1229      C1234   1.402       .  A
C1229      F1247   1.358   1_565  S
C1230      C1235   1.482       .  S
C1230      C1231   1.403       .  A
C1231      C1232   1.402       .  A
C1231      F1236   1.358       .  S
C1232      C1233   1.411       .  A
C1232      F1248   1.358       .  S
C1233      C1234   1.412       .  A
C1234      F1237   1.358       .  S
C1235      C1238   1.405   1_565  A
C1235      C1242   1.401       .  A
C1238      C1239   1.406   1_655  A
C1238      F1243   1.357       .  S
C1239      C1240   1.410       .  A
C1239      F1245   1.357       .  S
C1240      C1241   1.412       .  A
C1241      C1242   1.397   1_445  A
C1241      F1244   1.358   1_545  S
C1242      F1246   1.358       .  S
