geometry optimzed in LAMMPS
_audit_creation_date              2020-11-30 
_audit_creation_method            'lammps2cif' 
_symmetry_space_group_name_H-M    'P1' 
_symmetry_Int_Tables_number       1 
_symmetry_cell_setting            triclinic 
loop_ 
_symmetry_equiv_pos_as_xyz 
  x,y,z 
_cell_length_a                    45.548668 
_cell_length_b                    50.56770631353678 
_cell_length_c                    45.19927384390157 
_cell_angle_alpha                 90.18917354094017 
_cell_angle_beta                  90.00814724850947 
_cell_angle_gamma                 89.92685775601387 
loop_ 
_atom_site_label 
_atom_site_type_symbol 
_atom_site_fract_x 
_atom_site_fract_y 
_atom_site_fract_z 
_atom_site_charge 
N1          N  0.46769096  0.46882128  0.44343232    -0.06400
N2          N  0.46343895  0.45057191  0.42293390    -0.58500
N3          N  0.44378554  0.02831434  0.46488669    -0.06100
N4          N  0.42352543  0.04645996  0.45991376    -0.60600
N5          N  0.46439000  0.02934937  0.44452875    -0.05700
N6          N  0.45853254  0.04816847  0.42524658    -0.58500
N7          N  0.44704509  0.46761341  0.46372766    -0.05300
N8          N  0.42838981  0.44841957  0.45750645    -0.61000
C9          C  0.43913902  0.43771300  0.43224337     0.95800
C10         C  0.43323217  0.05893735  0.43536721     0.95600
N11         N  0.46288075  0.02786404  0.05554768    -0.06600
N12         N  0.45684365  0.04642939  0.07520776    -0.59100
N13         N  0.44599336  0.46688404  0.03358621    -0.04700
N14         N  0.42659165  0.44814989  0.03891283    -0.60300
N15         N  0.46610625  0.46738548  0.05446622    -0.06600
N16         N  0.46065129  0.44906030  0.07446434    -0.59300
N17         N  0.44282149  0.02744311  0.03462711    -0.04300
N18         N  0.42269780  0.04573156  0.03964714    -0.60400
Mn19       Mn  0.44406839  0.49750830  0.99917339     1.18400
C20         C  0.43196222  0.05768782  0.06481244     0.97900
C21         C  0.43611765  0.43695584  0.06430198     0.98500
N22         N  0.03363065  0.03229596  0.44496355    -0.06600
N23         N  0.03957518  0.04955038  0.42395843    -0.62900
N24         N  0.05719658  0.47289194  0.46565158    -0.05400
N25         N  0.07766311  0.45485837  0.46101142    -0.63600
N26         N  0.03697601  0.47168102  0.44489371    -0.06100
N27         N  0.04325820  0.45271986  0.42572990    -0.63200
N28         N  0.05374477  0.03328564  0.46582807    -0.05000
N29         N  0.07386169  0.05111291  0.45930355    -0.63900
Mn30       Mn  0.00064684  0.00054381  0.44364841     1.10700
C31         C  0.06481315  0.06103739  0.43307611     0.99100
C32         C  0.06849171  0.44217774  0.43630262     0.99200
N33         N  0.03593323  0.47073012  0.05534132    -0.06100
N34         N  0.04299507  0.45256275  0.07506287    -0.61500
N35         N  0.05215446  0.03307940  0.03627444    -0.05500
N36         N  0.07052025  0.05240374  0.04300456    -0.58200
N37         N  0.03160234  0.03118670  0.05660442    -0.06800
N38         N  0.03553325  0.04911864  0.07745926    -0.61100
N39         N  0.05662774  0.47261564  0.03517235    -0.05700
N40         N  0.07808695  0.45582793  0.04073505    -0.58300
Mn41       Mn  0.99911893  0.99913139  0.05627875     1.20200
Mn42       Mn  0.05566869  0.00315166  0.00075119     1.10100
Cl43       Cl  0.99987667  0.00006562  0.99996117    -0.86200
C44         C  0.06938926  0.44341267  0.06565429     0.96100
C45         C  0.05984136  0.06225214  0.06877860     0.95900
N46         N  0.28504621  0.27934541  0.19378183    -0.06400
N47         N  0.29154678  0.29684879  0.17317038    -0.58500
N48         N  0.30376239  0.21834802  0.21426632    -0.06100
N49         N  0.32367564  0.20027226  0.20763668    -0.60600
N50         N  0.28302094  0.21887997  0.19398925    -0.05700
N51         N  0.28846056  0.20122234  0.17310787    -0.58500
N52         N  0.30572860  0.27871751  0.21408401    -0.05300
N53         N  0.32673142  0.29569061  0.20774805    -0.61000
C54         C  0.31757513  0.30684533  0.18225275     0.95800
C55         C  0.31383124  0.18976743  0.18194852     0.95600
N56         N  0.28529494  0.21940934  0.30527033    -0.06600
N57         N  0.29168947  0.20168500  0.32571390    -0.59100
N58         N  0.30671253  0.27951810  0.28362466    -0.04700
N59         N  0.32651861  0.29817714  0.28777879    -0.60300
N60         N  0.28687344  0.28021231  0.30475108    -0.06600
N61         N  0.29275669  0.29943735  0.32368995    -0.59300
N62         N  0.30520790  0.21899741  0.28420093    -0.04300
N63         N  0.32548505  0.20109589  0.28989258    -0.60400
Mn64       Mn  0.30602108  0.24882343  0.24909183     1.18400
C65         C  0.31684073  0.19038463  0.31580432     0.97900
C66         C  0.31732864  0.31071228  0.31259396     0.98500
N67         N  0.21337244  0.22097508  0.19570237    -0.06600
N68         N  0.20669857  0.20261859  0.17599396    -0.62900
N69         N  0.19589813  0.28266985  0.21628052    -0.05400
N70         N  0.17685883  0.30179545  0.21098947    -0.63600
N71         N  0.21580409  0.28161537  0.19522718    -0.06100
N72         N  0.21071299  0.29999503  0.17520605    -0.63200
N73         N  0.19317768  0.22207332  0.21648255    -0.05000
N74         N  0.17233125  0.20454623  0.21122118    -0.63900
Mn75       Mn  0.24922785  0.25015169  0.19390756     1.10700
C76         C  0.18120007  0.19231207  0.18606371     0.99100
C77         C  0.18663920  0.31271337  0.18553465     0.99200
N78         N  0.21791151  0.28199284  0.30672978    -0.06100
N79         N  0.21344855  0.30024480  0.32718465    -0.61500
N80         N  0.19451151  0.22254341  0.28641470    -0.05500
N81         N  0.17329036  0.20579317  0.29286264    -0.58200
N82         N  0.21534527  0.22158010  0.30658553    -0.06800
N83         N  0.20865211  0.20413860  0.32720137    -0.61100
N84         N  0.19730852  0.28306044  0.28635899    -0.05700
N85         N  0.17845468  0.30217479  0.29250906    -0.58300
Mn86       Mn  0.25140648  0.25065770  0.30666101     1.20200
Mn87       Mn  0.19444966  0.25264734  0.25137266     1.10100
Cl88       Cl  0.25026122  0.25049306  0.25025689    -0.86200
C89         C  0.18905005  0.31294448  0.31780691     0.96100
C90         C  0.18234481  0.19453306  0.31836182     0.95900
C91         C  0.09221315  0.10057857  0.13376951    -0.22700
C92         C  0.10792676  0.12030512  0.11900189     0.09200
C93         C  0.10680804  0.12160894  0.08782250     0.09600
C94         C  0.09054902  0.10263947  0.07208366    -0.17600
C95         C  0.07495009  0.08268260  0.08677978    -0.28100
C96         C  0.07551738  0.08186167  0.11815880     0.18000
C97         C  0.12633013  0.13868149  0.13667187     0.11900
C98         C  0.12250749  0.14315153  0.07120068    -0.12400
H99         H  0.09000334  0.10340042  0.04806983     0.12200
C100        C  0.05971601  0.06079704  0.13549450    -0.23200
H101        H  0.09341945  0.09962557  0.15769960     0.07900
C102        C  0.11383607  0.15852225  0.15473749     0.04200
C103        C  0.13232995  0.17523958  0.17114551    -0.20500
C104        C  0.16305516  0.17292996  0.16949512    -0.12800
C105        C  0.17549945  0.15276679  0.15161582     0.12900
C106        C  0.15691246  0.13576650  0.13569102    -0.23200
C107        C  0.08107167  0.16252731  0.15612827    -0.06300
H108        H  0.12271643  0.19065587  0.18472442     0.14400
C109        C  0.20821521  0.14857832  0.14967543    -0.16400
H110        H  0.16628232  0.12011218  0.12215301     0.08800
H111        H  0.03563778  0.06267262  0.13216231     0.06600
H112        H  0.06393215  0.06253559  0.15958450     0.07800
H113        H  0.06725046  0.04089409  0.12826219     0.06900
H114        H  0.14649123  0.14173504  0.07499085     0.01700
H115        H  0.11454414  0.16276425  0.07887237     0.02200
H116        H  0.11858910  0.14171437  0.04696152     0.05700
H117        H  0.07507103  0.17949403  0.17054602     0.04700
H118        H  0.07032098  0.14460303  0.16516006    -0.01100
H119        H  0.07242396  0.16646794  0.13357942     0.00400
H120        H  0.21380909  0.13081323  0.13621655     0.04100
H121        H  0.21745716  0.14571778  0.17215879     0.06000
H122        H  0.21875478  0.16581495  0.13899036     0.06900
C123        C  0.10110135  0.09818397  0.36947357    -0.22700
C124        C  0.11567114  0.11819953  0.38500247     0.09200
C125        C  0.11352818  0.11944209  0.41607611     0.09600
C126        C  0.09679006  0.10041721  0.43101445    -0.17600
C127        C  0.08209090  0.08021782  0.41558389    -0.28100
C128        C  0.08487186  0.07875701  0.38429512     0.18000
C129        C  0.13310107  0.13763332  0.36813586     0.11900
C130        C  0.12870292  0.14096062  0.43337730    -0.12400
H131        H  0.09493894  0.10147507  0.45490699     0.12200
C132        C  0.07279697  0.05648705  0.36563044    -0.23200
H133        H  0.10317260  0.09726935  0.34558771     0.07900
C134        C  0.16315141  0.13354536  0.36213025     0.04200
C135        C  0.17871530  0.15270190  0.34613540    -0.20500
C136        C  0.16476218  0.17559904  0.33568082    -0.12800
C137        C  0.13458988  0.17974431  0.34203294     0.12900
C138        C  0.11913110  0.16047977  0.35788845    -0.23200
C139        C  0.17863214  0.10885552  0.37230274    -0.06300
H140        H  0.20177531  0.14958975  0.34131932     0.14400
C141        C  0.11809370  0.20456126  0.33386643    -0.16400
H142        H  0.09606518  0.16352061  0.36280265     0.08800
H143        H  0.09059313  0.04832441  0.35146955     0.06600
H144        H  0.05507019  0.06413365  0.35111359     0.07800
H145        H  0.06438219  0.03964073  0.37853535     0.06900
H146        H  0.12041535  0.16058227  0.42618776     0.01700
H147        H  0.15274328  0.14000427  0.42954467     0.02200
H148        H  0.12473520  0.13907151  0.45751144     0.05700
H149        H  0.20211584  0.10876433  0.36568550     0.04700
H150        H  0.16794118  0.09121448  0.36236420    -0.01100
H151        H  0.17756103  0.10738632  0.39676268     0.00400
H152        H  0.10029487  0.19959945  0.31802134     0.04100
H153        H  0.13207638  0.22007999  0.32406784     0.06000
H154        H  0.10810950  0.21329426  0.35408594     0.06900
C155        C  0.13396787  0.40547407  0.09875535    -0.22700
C156        C  0.11921917  0.38675035  0.11594622     0.09200
C157        C  0.08827725  0.38636968  0.11625640     0.09600
C158        C  0.07268917  0.40495997  0.09941687    -0.17600
C159        C  0.08732233  0.42377126  0.08201774    -0.28100
C160        C  0.11850475  0.42396393  0.08166032     0.18000
C161        C  0.13675635  0.36783038  0.13358253     0.11900
C162        C  0.07175690  0.36616776  0.13410587    -0.12400
H163        H  0.04890292  0.40469174  0.09971976     0.12200
C164        C  0.13583775  0.44398312  0.06426313    -0.23200
H165        H  0.15775252  0.40562857  0.09886092     0.07900
C166        C  0.15095149  0.34607921  0.12021881     0.04200
C167        C  0.16772384  0.32894709  0.13776386    -0.20500
C168        C  0.17037357  0.33285565  0.16843081    -0.12800
C169        C  0.15643449  0.35497194  0.18171919     0.12900
C170        C  0.13967166  0.37207545  0.16408185    -0.23200
C171        C  0.14777548  0.34058033  0.08759750    -0.06300
H172        H  0.17820806  0.31194827  0.12754570     0.14400
C173        C  0.15942755  0.36182114  0.21402485    -0.16400
H174        H  0.12904650  0.38907611  0.17413309     0.08800
H175        H  0.15983141  0.44190115  0.06799301     0.06600
H176        H  0.12942882  0.46430641  0.07107460     0.07800
H177        H  0.13187333  0.44120706  0.04023002     0.06900
H178        H  0.07703105  0.36852969  0.15793546     0.01700
H179        H  0.07805749  0.34595674  0.12678161     0.02200
H180        H  0.04763278  0.36830433  0.13144151     0.05700
H181        H  0.15977684  0.32239722  0.08086325     0.04700
H182        H  0.15670982  0.35735335  0.07465514    -0.01100
H183        H  0.12422361  0.33787648  0.08204407     0.00400
H184        H  0.16760342  0.38241095  0.21632994     0.04100
H185        H  0.17513425  0.34899290  0.22587101     0.06000
H186        H  0.13762128  0.36038455  0.22486744     0.06900
C187        C  0.41049404  0.11525306  0.11489954    -0.22700
C188        C  0.37989756  0.11268811  0.11499890     0.09200
C189        C  0.36646046  0.09301862  0.09752310     0.09600
C190        C  0.38409701  0.07584156  0.08076591    -0.17600
C191        C  0.41486311  0.07799444  0.08097250    -0.28100
C192        C  0.42821121  0.09847799  0.09772718     0.18000
C193        C  0.36235654  0.13183110  0.13236782     0.11900
C194        C  0.33356490  0.09008361  0.09676980    -0.12400
H195        H  0.37378923  0.06027451  0.06791907     0.12200
C196        C  0.46070182  0.10422057  0.09714628    -0.23200
H197        H  0.42057574  0.13090503  0.12782441     0.07900
C198        C  0.35631208  0.12789629  0.16262724     0.04200
C199        C  0.34037451  0.14719927  0.17826226    -0.20500
C200        C  0.33052359  0.17031580  0.16426970    -0.12800
C201        C  0.33742033  0.17451902  0.13406149     0.12900
C202        C  0.35279038  0.15494381  0.11842010    -0.23200
C203        C  0.36674181  0.10339282  0.17831101    -0.06300
H204        H  0.33544966  0.14419800  0.20146804     0.14400
C205        C  0.33060743  0.19983663  0.11787764    -0.16400
H206        H  0.35812088  0.15805711  0.09531754     0.08800
H207        H  0.47024976  0.10061531  0.11937345     0.06600
H208        H  0.46418810  0.12530367  0.09126748     0.07800
H209        H  0.47290190  0.09242522  0.08058247     0.06900
H210        H  0.32339992  0.10860886  0.08851681     0.01700
H211        H  0.32523422  0.08595194  0.11936591     0.02200
H212        H  0.32663419  0.07363304  0.08200926     0.05700
H213        H  0.36009363  0.10338157  0.20195063     0.04700
H214        H  0.39106196  0.10222602  0.17730105    -0.01100
H215        H  0.35726175  0.08558405  0.16753776     0.00400
H216        H  0.35121385  0.20806154  0.10856262     0.04100
H217        H  0.32103999  0.21541722  0.13214492     0.06000
H218        H  0.31517443  0.19568053  0.09942681     0.06900
C219        C  0.39294552  0.37855616  0.40912940    -0.22700
C220        C  0.38920024  0.38370988  0.37895612     0.09200
C221        C  0.40302685  0.40579234  0.36611042     0.09600
C222        C  0.42024394  0.42242558  0.38392727    -0.17600
C223        C  0.42348365  0.41770871  0.41436483    -0.28100
C224        C  0.41015339  0.39513155  0.42699946     0.18000
C225        C  0.37096415  0.36547013  0.36116507     0.11900
C226        C  0.39899582  0.41212755  0.33381075    -0.12400
H227        H  0.43038740  0.43973346  0.37422930     0.12200
C228        C  0.41424926  0.38734933  0.45885202    -0.23200
H229        H  0.38258761  0.36129251  0.41873318     0.07900
C230        C  0.38357782  0.34394639  0.34591182     0.04200
C231        C  0.36546663  0.32714267  0.32931380    -0.20500
C232        C  0.33492517  0.33092928  0.32823598    -0.12800
C233        C  0.32231963  0.35277687  0.34334369     0.12900
C234        C  0.34058364  0.36967374  0.35979034    -0.23200
C235        C  0.41601411  0.33828851  0.34785926    -0.06300
H236        H  0.37514219  0.31034887  0.31794542     0.14400
C237        C  0.29008901  0.35951539  0.34195732    -0.16400
H238        H  0.33110206  0.38639682  0.37146354     0.08800
H239        H  0.42292184  0.36683910  0.45993995     0.06600
H240        H  0.39273418  0.38809183  0.47034597     0.07800
H241        H  0.43001985  0.40010729  0.47081967     0.06900
H242        H  0.37534645  0.41536288  0.32908166     0.01700
H243        H  0.40713886  0.39553416  0.31994187     0.02200
H244        H  0.41114443  0.43025482  0.32739745     0.05700
H245        H  0.42221667  0.32049614  0.33478742     0.04700
H246        H  0.42222493  0.33477585  0.37127165    -0.01100
H247        H  0.42873111  0.35530510  0.33928342     0.00400
H248        H  0.28030531  0.35783041  0.36436408     0.04100
H249        H  0.27757065  0.34679128  0.32651166     0.06000
H250        H  0.28741531  0.38018234  0.33415710     0.06900
C251        C  0.38471234  0.11769824  0.41561867    -0.22700
C252        C  0.38207316  0.11416935  0.38495463     0.09200
C253        C  0.39661579  0.09283863  0.37106400     0.09600
C254        C  0.41365175  0.07559998  0.38818544    -0.17600
C255        C  0.41616184  0.07890495  0.41892756    -0.28100
C256        C  0.40162161  0.10037401  0.43286620     0.18000
C257        C  0.36493765  0.13360490  0.36758120     0.11900
C258        C  0.39358106  0.08785052  0.33830874    -0.12400
H259        H  0.42457167  0.05904472  0.37756175     0.12200
C260        C  0.40423888  0.10638514  0.46546375    -0.23200
H261        H  0.37388004  0.13437676  0.42609431     0.07900
C262        C  0.33399873  0.13448193  0.36859895     0.04200
C263        C  0.31894794  0.15318738  0.35139462    -0.20500
C264        C  0.33409481  0.17072531  0.33281422    -0.12800
C265        C  0.36523215  0.16975607  0.33189235     0.12900
C266        C  0.38016313  0.15134210  0.34951255    -0.23200
C267        C  0.31686594  0.11538929  0.38737289    -0.06300
H268        H  0.29520925  0.15391282  0.35220452     0.14400
C269        C  0.38312018  0.18842123  0.31322233    -0.16400
H270        H  0.40392446  0.15064408  0.34916184     0.08800
H271        H  0.38232662  0.10469566  0.47604730     0.06600
H272        H  0.41237086  0.12691395  0.46847994     0.07800
H273        H  0.41974867  0.09323829  0.47719335     0.06900
H274        H  0.40267990  0.10472441  0.32567291     0.01700
H275        H  0.37004496  0.08530006  0.33258439     0.02200
H276        H  0.40552997  0.06972464  0.33128926     0.05700
H277        H  0.29281902  0.11829410  0.38492717     0.04700
H278        H  0.32251033  0.11823232  0.41105392    -0.01100
H279        H  0.32218984  0.09478065  0.38069836     0.00400
H280        H  0.40706576  0.18563921  0.31667665     0.04100
H281        H  0.37770572  0.20920672  0.31907538     0.06000
H282        H  0.37863822  0.18481409  0.28941672     0.06900
C283        C  0.14475993  0.37339087  0.34088136    -0.22700
C284        C  0.13974209  0.36783469  0.37078647     0.09200
C285        C  0.15202614  0.34492617  0.38348761     0.09600
C286        C  0.16877742  0.32778761  0.36575261    -0.17600
C287        C  0.17330971  0.33298603  0.33558758    -0.28100
C288        C  0.16166465  0.35640288  0.32314770     0.18000
C289        C  0.12180391  0.38651301  0.38843040     0.11900
C290        C  0.14733011  0.33857456  0.41567168    -0.12400
H291        H  0.17776288  0.30989781  0.37531033     0.12200
C292        C  0.16740122  0.36465578  0.29171059    -0.23200
H293        H  0.13566549  0.39128503  0.33140214     0.07900
C294        C  0.13426758  0.40933360  0.40122229     0.04200
C295        C  0.11632621  0.42669105  0.41738875    -0.20500
C296        C  0.08612756  0.42195181  0.42069116    -0.12800
C297        C  0.07376287  0.39871951  0.40831218     0.12900
C298        C  0.09181261  0.38138418  0.39216172    -0.23200
C299        C  0.16643387  0.41541819  0.39760015    -0.06300
H300        H  0.12581395  0.44446147  0.42687738     0.14400
C301        C  0.04207297  0.39098143  0.41244722    -0.16400
H302        H  0.08246620  0.36360442  0.38253494     0.08800
H303        H  0.17753038  0.38461694  0.29156946     0.06600
H304        H  0.14630736  0.36546992  0.27946304     0.07800
H305        H  0.18261822  0.35121212  0.27989317     0.06900
H306        H  0.12351202  0.33622241  0.42014668     0.01700
H307        H  0.15610434  0.35484208  0.42964101     0.02200
H308        H  0.15859270  0.31996378  0.42209925     0.05700
H309        H  0.17266088  0.43399306  0.40917978     0.04700
H310        H  0.17171504  0.41772021  0.37377569    -0.01100
H311        H  0.17979538  0.39905095  0.40688750     0.00400
H312        H  0.03091800  0.39034150  0.39061590     0.04100
H313        H  0.02977859  0.40456513  0.42717423     0.06000
H314        H  0.04099385  0.37103013  0.42257324     0.06900
C315        C  0.38440103  0.38065076  0.08481068    -0.22700
C316        C  0.38695998  0.38083577  0.11563646     0.09200
C317        C  0.40646948  0.39854262  0.12951073     0.09600
C318        C  0.42263397  0.41623794  0.11211279    -0.17600
C319        C  0.41957657  0.41671794  0.08115091    -0.28100
C320        C  0.40042687  0.39836587  0.06732021     0.18000
C321        C  0.36894001  0.36217072  0.13288697     0.11900
C322        C  0.40986413  0.39894509  0.16266032    -0.12400
H323        H  0.43727352  0.43016630  0.12287867     0.12200
C324        C  0.39734221  0.39662828  0.03421888    -0.23200
H325        H  0.36960056  0.36661743  0.07444543     0.07900
C326        C  0.33953166  0.36796215  0.14024789     0.04200
C327        C  0.32308041  0.34933039  0.15610117    -0.18900
C328        C  0.33551207  0.32516426  0.16468889    -0.12800
C329        C  0.36482533  0.31912956  0.15657977     0.12900
C330        C  0.38127444  0.33793423  0.14109711    -0.23200
C331        C  0.32570484  0.39386377  0.13154683    -0.06300
H332        H  0.30058722  0.35376205  0.16217001     0.14400
C333        C  0.37915125  0.29275403  0.16253387    -0.16400
H334        H  0.40369711  0.33346667  0.13483427     0.08800
H335        H  0.38717730  0.41494926  0.02546770     0.06600
H336        H  0.38315169  0.37983633  0.02740509     0.07800
H337        H  0.41930567  0.39357577  0.02413620     0.06900
H338        H  0.41770391  0.37936961  0.17042776     0.01700
H339        H  0.38840829  0.40344982  0.17318053     0.02200
H340        H  0.42593056  0.41413527  0.16997819     0.05700
H341        H  0.30263250  0.39536501  0.13933180     0.04700
H342        H  0.32574345  0.39579322  0.10708876    -0.01100
H343        H  0.33830934  0.41049028  0.14137440     0.00400
H344        H  0.38714252  0.28416069  0.14136264     0.04100
H345        H  0.36414766  0.27804029  0.17237726     0.06000
H346        H  0.39817094  0.29555419  0.17759632     0.06900
N347        N  0.46769094  0.46882128  0.94343234    -0.06400
N348        N  0.46343890  0.45057191  0.92293390    -0.58500
N349        N  0.44378559  0.02831433  0.96488668    -0.06100
N350        N  0.42352547  0.04645997  0.95991373    -0.60600
N351        N  0.46439004  0.02934939  0.94452874    -0.05700
N352        N  0.45853261  0.04816849  0.92524657    -0.58500
N353        N  0.44704505  0.46761342  0.96372766    -0.05300
N354        N  0.42838975  0.44841962  0.95750643    -0.61000
C355        C  0.43913895  0.43771303  0.93224337     0.95800
C356        C  0.43323222  0.05893736  0.93536719     0.95600
N357        N  0.46288079  0.02786407  0.55554769    -0.06600
N358        N  0.45684371  0.04642942  0.57520775    -0.59100
N359        N  0.44599338  0.46688406  0.53358619    -0.04700
N360        N  0.42659166  0.44814990  0.53891281    -0.60300
N361        N  0.46610628  0.46738548  0.55446624    -0.06600
N362        N  0.46065129  0.44906033  0.57446432    -0.59300
N363        N  0.44282149  0.02744314  0.53462713    -0.04300
N364        N  0.42269782  0.04573156  0.53964718    -0.60400
Mn365      Mn  0.44406840  0.49750829  0.49917338     1.18400
C366        C  0.43196226  0.05768785  0.56481252     0.97900
C367        C  0.43611769  0.43695586  0.56430199     0.98500
N368        N  0.03363062  0.03229596  0.94496353    -0.06600
N369        N  0.03957519  0.04955036  0.92395841    -0.62900
N370        N  0.05719658  0.47289194  0.96565158    -0.05400
N371        N  0.07766311  0.45485833  0.96101147    -0.63600
N372        N  0.03697605  0.47168101  0.94489373    -0.06100
N373        N  0.04325820  0.45271980  0.92572993    -0.63200
N374        N  0.05374474  0.03328565  0.96582805    -0.05000
N375        N  0.07386166  0.05111292  0.95930357    -0.63900
Mn376      Mn  0.00064680  0.00054380  0.94364842     1.10700
C377        C  0.06481315  0.06103740  0.93307607     0.99100
C378        C  0.06849171  0.44217770  0.93630272     0.99200
N379        N  0.03593325  0.47073008  0.55534131    -0.06100
N380        N  0.04299510  0.45256273  0.57506284    -0.61500
N381        N  0.05215452  0.03307938  0.53627443    -0.05500
N382        N  0.07052031  0.05240372  0.54300456    -0.58200
N383        N  0.03160240  0.03118668  0.55660440    -0.06800
N384        N  0.03553331  0.04911863  0.57745925    -0.61100
N385        N  0.05662774  0.47261564  0.53517233    -0.05700
N386        N  0.07808699  0.45582794  0.54073503    -0.58300
Mn387      Mn  0.99911896  0.99913140  0.55627873     1.20200
Mn388      Mn  0.05566872  0.00315165  0.50075117     1.10100
Cl389      Cl  0.99987668  0.00006565  0.49996115    -0.86200
C390        C  0.06938931  0.44341267  0.56565426     0.96100
C391        C  0.05984142  0.06225212  0.56877859     0.95900
N392        N  0.28504623  0.27934539  0.69378180    -0.06400
N393        N  0.29154681  0.29684879  0.67317039    -0.58500
N394        N  0.30376236  0.21834799  0.71426635    -0.06100
N395        N  0.32367559  0.20027223  0.70763672    -0.60600
N396        N  0.28302092  0.21887996  0.69398929    -0.05700
N397        N  0.28846054  0.20122233  0.67310789    -0.58500
N398        N  0.30572863  0.27871748  0.71408400    -0.05300
N399        N  0.32673144  0.29569058  0.70774804    -0.61000
C400        C  0.31757516  0.30684533  0.68225276     0.95800
C401        C  0.31383122  0.18976740  0.68194859     0.95600
N402        N  0.28529496  0.21940934  0.80527032    -0.06600
N403        N  0.29168947  0.20168499  0.82571391    -0.59100
N404        N  0.30671253  0.27951808  0.78362468    -0.04700
N405        N  0.32651859  0.29817716  0.78777877    -0.60300
N406        N  0.28687345  0.28021229  0.80475112    -0.06600
N407        N  0.29275669  0.29943735  0.82368994    -0.59300
N408        N  0.30520791  0.21899739  0.78420094    -0.04300
N409        N  0.32548505  0.20109587  0.78989259    -0.60400
Mn410      Mn  0.30602107  0.24882341  0.74909183     1.18400
C411        C  0.31684076  0.19038461  0.81580430     0.97900
C412        C  0.31732858  0.31071231  0.81259395     0.98500
N413        N  0.21337243  0.22097509  0.69570241    -0.06600
N414        N  0.20669858  0.20261858  0.67599402    -0.62900
N415        N  0.19589814  0.28266984  0.71628051    -0.05400
N416        N  0.17685886  0.30179545  0.71098946    -0.63600
N417        N  0.21580411  0.28161538  0.69522717    -0.06100
N418        N  0.21071304  0.29999505  0.67520606    -0.63200
N419        N  0.19317766  0.22207332  0.71648259    -0.05000
N420        N  0.17233126  0.20454622  0.71122122    -0.63900
Mn421      Mn  0.24922785  0.25015168  0.69390756     1.10700
C422        C  0.18120004  0.19231206  0.68606381     0.99100
C423        C  0.18663922  0.31271339  0.68553466     0.99200
N424        N  0.21791153  0.28199281  0.80672982    -0.06100
N425        N  0.21344857  0.30024478  0.82718469    -0.61500
N426        N  0.19451151  0.22254340  0.78641471    -0.05500
N427        N  0.17329040  0.20579317  0.79286262    -0.58200
N428        N  0.21534532  0.22158010  0.80658551    -0.06800
N429        N  0.20865217  0.20413855  0.82720134    -0.61100
N430        N  0.19730854  0.28306044  0.78635903    -0.05700
N431        N  0.17845474  0.30217481  0.79250908    -0.58300
Mn432      Mn  0.25140650  0.25065768  0.80666102     1.20200
Mn433      Mn  0.19444966  0.25264735  0.75137267     1.10100
Cl434      Cl  0.25026120  0.25049304  0.75025689    -0.86200
C435        C  0.18905012  0.31294449  0.81780694     0.96100
C436        C  0.18234487  0.19453302  0.81836180     0.95900
C437        C  0.09221319  0.10057859  0.63376946    -0.22700
C438        C  0.10792676  0.12030515  0.61900185     0.09200
C439        C  0.10680807  0.12160896  0.58782249     0.09600
C440        C  0.09054906  0.10263948  0.57208364    -0.17600
C441        C  0.07495014  0.08268261  0.58677977    -0.28100
C442        C  0.07551746  0.08186167  0.61815879     0.18000
C443        C  0.12633012  0.13868154  0.63667188     0.11900
C444        C  0.12250734  0.14315162  0.57120062    -0.12400
H445        H  0.09000340  0.10340041  0.54806976     0.12200
C446        C  0.05971603  0.06079707  0.63549436    -0.23200
H447        H  0.09341949  0.09962559  0.65769971     0.07900
C448        C  0.11383611  0.15852224  0.65473751     0.04200
C449        C  0.13232999  0.17523948  0.67114549    -0.20500
C450        C  0.16305518  0.17292991  0.66949515    -0.12800
C451        C  0.17549941  0.15276680  0.65161590     0.12900
C452        C  0.15691232  0.13576677  0.63569127    -0.23200
C453        C  0.08107163  0.16252727  0.65612815    -0.06300
H454        H  0.12271616  0.19065629  0.68472486     0.14400
C455        C  0.20821519  0.14857830  0.64967533    -0.16400
H456        H  0.16628296  0.12011113  0.62215212     0.08800
H457        H  0.03563829  0.06267256  0.63216235     0.06600
H458        H  0.06393237  0.06253559  0.65958488     0.07800
H459        H  0.06725068  0.04089396  0.62826212     0.06900
H460        H  0.14649178  0.14173504  0.57499093     0.01700
H461        H  0.11454427  0.16276404  0.57887226     0.02200
H462        H  0.11858919  0.14171440  0.54696167     0.05700
H463        H  0.07507095  0.17949422  0.67054634     0.04700
H464        H  0.07032096  0.14460295  0.66516012    -0.01100
H465        H  0.07242412  0.16646789  0.63357996     0.00400
H466        H  0.21380901  0.13081349  0.63621683     0.04100
H467        H  0.21745731  0.14571778  0.67215931     0.06000
H468        H  0.21875469  0.16581491  0.63899048     0.06900
C469        C  0.10110143  0.09818395  0.86947335    -0.22700
C470        C  0.11567120  0.11819955  0.88500247     0.09200
C471        C  0.11352823  0.11944209  0.91607618     0.09600
C472        C  0.09679010  0.10041720  0.93101468    -0.17600
C473        C  0.08209093  0.08021779  0.91558393    -0.28100
C474        C  0.08487192  0.07875699  0.88429511     0.18000
C475        C  0.13310110  0.13763331  0.86813590     0.11900
C476        C  0.12870309  0.14096052  0.93337722    -0.12400
H477        H  0.09493909  0.10147498  0.95490603     0.12200
C478        C  0.07279707  0.05648713  0.86563028    -0.23200
H479        H  0.10317260  0.09726938  0.84558878     0.07900
C480        C  0.16315145  0.13354535  0.86213026     0.04200
C481        C  0.17871537  0.15270190  0.84613543    -0.20500
C482        C  0.16476224  0.17559903  0.83568082    -0.12800
C483        C  0.13458993  0.17974431  0.84203291     0.12900
C484        C  0.11913113  0.16047977  0.85788845    -0.23200
C485        C  0.17863217  0.10885554  0.87230276    -0.06300
H486        H  0.20177524  0.14958977  0.84131938     0.14400
C487        C  0.11809361  0.20456115  0.83386651    -0.16400
H488        H  0.09606529  0.16352059  0.86280263     0.08800
H489        H  0.09059299  0.04832450  0.85146970     0.06600
H490        H  0.05507045  0.06413354  0.85111378     0.07800
H491        H  0.06438209  0.03964038  0.87853563     0.06900
H492        H  0.12041526  0.16058246  0.92618778     0.01700
H493        H  0.15274292  0.14000429  0.92954474     0.02200
H494        H  0.12473521  0.13907143  0.95751182     0.05700
H495        H  0.20211585  0.10876429  0.86568547     0.04700
H496        H  0.16794103  0.09121426  0.86236391    -0.01100
H497        H  0.17756100  0.10738619  0.89676241     0.00400
H498        H  0.10029511  0.19959950  0.81802134     0.04100
H499        H  0.13207689  0.22008038  0.82406752     0.06000
H500        H  0.10810971  0.21329414  0.85408556     0.06900
C501        C  0.13396818  0.40547401  0.59875532    -0.22700
C502        C  0.11921911  0.38675030  0.61594619     0.09200
C503        C  0.08827718  0.38636969  0.61625639     0.09600
C504        C  0.07268919  0.40495999  0.59941686    -0.17600
C505        C  0.08732234  0.42377125  0.58201770    -0.28100
C506        C  0.11850479  0.42396388  0.58166026     0.18000
C507        C  0.13675627  0.36783033  0.63358255     0.11900
C508        C  0.07175693  0.36616779  0.63410601    -0.12400
H509        H  0.04890299  0.40469179  0.59971973     0.12200
C510        C  0.13583783  0.44398301  0.56426306    -0.23200
H511        H  0.15775129  0.40562845  0.59886089     0.07900
C512        C  0.15095144  0.34607917  0.62021882     0.04200
C513        C  0.16772389  0.32894692  0.63776382    -0.20500
C514        C  0.17037355  0.33285569  0.66843082    -0.12800
C515        C  0.15643451  0.35497197  0.68171919     0.12900
C516        C  0.13967180  0.37207515  0.66408166    -0.23200
C517        C  0.14777523  0.34058042  0.58759755    -0.06300
H518        H  0.17820775  0.31194865  0.62754598     0.14400
C519        C  0.15942759  0.36182117  0.71402485    -0.16400
H520        H  0.12904575  0.38907724  0.67413373     0.08800
H521        H  0.15983151  0.44190102  0.56799294     0.06600
H522        H  0.12942895  0.46430630  0.57107449     0.07800
H523        H  0.13187342  0.44120693  0.54022993     0.06900
H524        H  0.07703086  0.36852964  0.65793493     0.01700
H525        H  0.07805739  0.34595672  0.62678154     0.02200
H526        H  0.04763240  0.36830441  0.63144144     0.05700
H527        H  0.15977725  0.32239651  0.58086305     0.04700
H528        H  0.15670985  0.35735319  0.57465517    -0.01100
H529        H  0.12422417  0.33787646  0.58204420     0.00400
H530        H  0.16760356  0.38241110  0.71632991     0.04100
H531        H  0.17513440  0.34899294  0.72587097     0.06000
H532        H  0.13762155  0.36038461  0.72486740     0.06900
C533        C  0.41049399  0.11525309  0.61489955    -0.22700
C534        C  0.37989751  0.11268814  0.61499893     0.09200
C535        C  0.36646042  0.09301861  0.59752312     0.09600
C536        C  0.38409693  0.07584140  0.58076587    -0.17600
C537        C  0.41486313  0.07799443  0.58097257    -0.28100
C538        C  0.42821120  0.09847804  0.59772725     0.18000
C539        C  0.36235647  0.13183108  0.63236786     0.11900
C540        C  0.33356494  0.09008349  0.59676978    -0.12400
H541        H  0.37378964  0.06027503  0.56791963     0.12200
C542        C  0.46070177  0.10422063  0.59714629    -0.23200
H543        H  0.42057565  0.13090506  0.62782439     0.07900
C544        C  0.35631211  0.12789634  0.66262731     0.04200
C545        C  0.34037463  0.14719933  0.67826213    -0.20500
C546        C  0.33052354  0.17031579  0.66426975    -0.12800
C547        C  0.33742021  0.17451898  0.63406156     0.12900
C548        C  0.35279024  0.15494379  0.61842002    -0.23200
C549        C  0.36674193  0.10339282  0.67831089    -0.06300
H550        H  0.33544968  0.14419798  0.70146892     0.14400
C551        C  0.33060740  0.19983653  0.61787743    -0.16400
H552        H  0.35812056  0.15805700  0.59531780     0.08800
H553        H  0.47024977  0.10061535  0.61937381     0.06600
H554        H  0.46418804  0.12530366  0.59126759     0.07800
H555        H  0.47290185  0.09242533  0.58058271     0.06900
H556        H  0.32339973  0.10860923  0.58851647     0.01700
H557        H  0.32523412  0.08595205  0.61936576     0.02200
H558        H  0.32663423  0.07363313  0.58200933     0.05700
H559        H  0.36009362  0.10338168  0.70195124     0.04700
H560        H  0.39106191  0.10222611  0.67730111    -0.01100
H561        H  0.35726197  0.08558436  0.66753807     0.00400
H562        H  0.35121331  0.20806136  0.60856275     0.04100
H563        H  0.32103965  0.21541762  0.63214538     0.06000
H564        H  0.31517442  0.19568057  0.59942715     0.06900
C565        C  0.39294538  0.37855608  0.90912943    -0.22700
C566        C  0.38920017  0.38370993  0.87895610     0.09200
C567        C  0.40302679  0.40579237  0.86611040     0.09600
C568        C  0.42024382  0.42242564  0.88392727    -0.17600
C569        C  0.42348358  0.41770877  0.91436482    -0.28100
C570        C  0.41015333  0.39513156  0.92699943     0.18000
C571        C  0.37096407  0.36547019  0.86116507     0.11900
C572        C  0.39899568  0.41212779  0.83381073    -0.12400
H573        H  0.43038728  0.43973354  0.87422931     0.12200
C574        C  0.41424939  0.38734949  0.95885202    -0.23200
H575        H  0.38258786  0.36129300  0.91873288     0.07900
C576        C  0.38357774  0.34394645  0.84591187     0.04200
C577        C  0.36546658  0.32714272  0.82931382    -0.20500
C578        C  0.33492513  0.33092934  0.82823596    -0.12800
C579        C  0.32231957  0.35277693  0.84334368     0.12900
C580        C  0.34058364  0.36967371  0.85979022    -0.23200
C581        C  0.41601408  0.33828843  0.84785906    -0.06300
H582        H  0.37514216  0.31034886  0.81794543     0.14400
C583        C  0.29008896  0.35951543  0.84195733    -0.16400
H584        H  0.33110175  0.38639736  0.87146378     0.08800
H585        H  0.42292219  0.36683853  0.95993977     0.06600
H586        H  0.39273422  0.38809161  0.97034597     0.07800
H587        H  0.43001945  0.40010685  0.97081928     0.06900
H588        H  0.37534709  0.41536274  0.82908162     0.01700
H589        H  0.40713919  0.39553347  0.81994139     0.02200
H590        H  0.41114429  0.43025438  0.82739747     0.05700
H591        H  0.42221644  0.32049673  0.83478804     0.04700
H592        H  0.42222498  0.33477583  0.87127249    -0.01100
H593        H  0.42873105  0.35530510  0.83928360     0.00400
H594        H  0.28030525  0.35783041  0.86436429     0.04100
H595        H  0.27757059  0.34679127  0.82651176     0.06000
H596        H  0.28741522  0.38018225  0.83415718     0.06900
C597        C  0.38471239  0.11769819  0.91561864    -0.22700
C598        C  0.38207311  0.11416932  0.88495465     0.09200
C599        C  0.39661574  0.09283861  0.87106399     0.09600
C600        C  0.41365177  0.07559992  0.88818537    -0.17600
C601        C  0.41616189  0.07890495  0.91892754    -0.28100
C602        C  0.40162168  0.10037404  0.93286615     0.18000
C603        C  0.36493768  0.13360487  0.86758122     0.11900
C604        C  0.39358119  0.08785035  0.83830875    -0.12400
H605        H  0.42457154  0.05904488  0.87756184     0.12200
C606        C  0.40423894  0.10638514  0.96546374    -0.23200
H607        H  0.37388000  0.13437688  0.92609438     0.07900
C608        C  0.33399873  0.13448193  0.86859895     0.04200
C609        C  0.31894771  0.15318741  0.85139465    -0.20500
C610        C  0.33409483  0.17072531  0.83281424    -0.12800
C611        C  0.36523218  0.16975603  0.83189234     0.12900
C612        C  0.38016309  0.15134208  0.84951256    -0.23200
C613        C  0.31686598  0.11538920  0.88737286    -0.06300
H614        H  0.29521027  0.15391283  0.85220452     0.14400
C615        C  0.38312034  0.18842123  0.81322240    -0.16400
H616        H  0.40392458  0.15064402  0.84916184     0.08800
H617        H  0.38232690  0.10469571  0.97604718     0.06600
H618        H  0.41237102  0.12691406  0.96847987     0.07800
H619        H  0.41974877  0.09323832  0.97719328     0.06900
H620        H  0.40267987  0.10472448  0.82567281     0.01700
H621        H  0.37004427  0.08530005  0.83258428     0.02200
H622        H  0.40552947  0.06972509  0.83128942     0.05700
H623        H  0.29281867  0.11829425  0.88492714     0.04700
H624        H  0.32251027  0.11823235  0.91105392    -0.01100
H625        H  0.32218959  0.09478108  0.88069847     0.00400
H626        H  0.40706532  0.18563915  0.81667649     0.04100
H627        H  0.37770582  0.20920645  0.81907518     0.06000
H628        H  0.37863812  0.18481390  0.78941619     0.06900
C629        C  0.14476002  0.37339090  0.84088140    -0.22700
C630        C  0.13974218  0.36783473  0.87078651     0.09200
C631        C  0.15202624  0.34492623  0.88348766     0.09600
C632        C  0.16877748  0.32778774  0.86575261    -0.17600
C633        C  0.17330979  0.33298606  0.83558761    -0.28100
C634        C  0.16166475  0.35640291  0.82314774     0.18000
C635        C  0.12180399  0.38651306  0.88843045     0.11900
C636        C  0.14733013  0.33857446  0.91567168    -0.12400
H637        H  0.17776315  0.30989751  0.87531056     0.12200
C638        C  0.16740119  0.36465578  0.79171059    -0.23200
H639        H  0.13566554  0.39128510  0.83140215     0.07900
C640        C  0.13426761  0.40933366  0.90122235     0.04200
C641        C  0.11632618  0.42669092  0.91738875    -0.20500
C642        C  0.08612758  0.42195180  0.92069124    -0.12800
C643        C  0.07376295  0.39871949  0.90831221     0.12900
C644        C  0.09181261  0.38138403  0.89216168    -0.23200
C645        C  0.16643391  0.41541826  0.89760020    -0.06300
H646        H  0.12581426  0.44446202  0.92687777     0.14400
C647        C  0.04207296  0.39098160  0.91244750    -0.16400
H648        H  0.08246659  0.36360499  0.88253526     0.08800
H649        H  0.17753059  0.38461718  0.79156950     0.06600
H650        H  0.14630776  0.36546995  0.77946325     0.07800
H651        H  0.18261836  0.35121211  0.77989318     0.06900
H652        H  0.12351216  0.33622250  0.92014668     0.01700
H653        H  0.15610455  0.35484240  0.92964133     0.02200
H654        H  0.15859258  0.31996402  0.92209923     0.05700
H655        H  0.17266085  0.43399321  0.90917977     0.04700
H656        H  0.17171503  0.41772032  0.87377561    -0.01100
H657        H  0.17979534  0.39905120  0.90688746     0.00400
H658        H  0.03091783  0.39034136  0.89061526     0.04100
H659        H  0.02977913  0.40456438  0.92717351     0.06000
H660        H  0.04099394  0.37102973  0.92257331     0.06900
C661        C  0.38440097  0.38065068  0.58481060    -0.22700
C662        C  0.38695998  0.38083580  0.61563645     0.09200
C663        C  0.40646946  0.39854264  0.62951071     0.09600
C664        C  0.42263384  0.41623788  0.61211273    -0.17600
C665        C  0.41957657  0.41671797  0.58115090    -0.28100
C666        C  0.40042691  0.39836587  0.56732021     0.18000
C667        C  0.36894000  0.36217074  0.63288694     0.11900
C668        C  0.40986410  0.39894520  0.66266034    -0.12400
H669        H  0.43727383  0.43016670  0.62287894     0.12200
C670        C  0.39734236  0.39662836  0.53421887    -0.23200
H671        H  0.36960095  0.36661773  0.57444564     0.07900
C672        C  0.33953163  0.36796215  0.64024786     0.04200
C673        C  0.32308033  0.34933039  0.65610120    -0.18900
C674        C  0.33551211  0.32516427  0.66468889    -0.12800
C675        C  0.36482538  0.31912958  0.65657977     0.12900
C676        C  0.38127449  0.33793428  0.64109713    -0.23200
C677        C  0.32570501  0.39386380  0.63154675    -0.06300
H678        H  0.30058757  0.35376198  0.66216993     0.14400
C679        C  0.37915117  0.29275408  0.66253404    -0.16400
H680        H  0.40369704  0.33346676  0.63483436     0.08800
H681        H  0.38717747  0.41494905  0.52546773     0.06600
H682        H  0.38315165  0.37983602  0.52740495     0.07800
H683        H  0.41930577  0.39357578  0.52413624     0.06900
H684        H  0.41770396  0.37936936  0.67042784     0.01700
H685        H  0.38840822  0.40344974  0.67318047     0.02200
H686        H  0.42593022  0.41413505  0.66997812     0.05700
H687        H  0.30263194  0.39536503  0.63933189     0.04700
H688        H  0.32574340  0.39579314  0.60708872    -0.01100
H689        H  0.33830908  0.41048999  0.64137413     0.00400
H690        H  0.38714273  0.28416049  0.64136197     0.04100
H691        H  0.36414790  0.27804052  0.67237702     0.06000
H692        H  0.39817085  0.29555414  0.67759612     0.06900
N693        N  0.46769094  0.96882128  0.44343232    -0.06400
N694        N  0.46343895  0.95057190  0.42293395    -0.58500
N695        N  0.44378557  0.52831433  0.46488668    -0.06100
N696        N  0.42352546  0.54645995  0.45991375    -0.60600
N697        N  0.46439003  0.52934936  0.44452874    -0.05700
N698        N  0.45853257  0.54816846  0.42524658    -0.58500
N699        N  0.44704503  0.96761343  0.46372766    -0.05300
N700        N  0.42838976  0.94841959  0.45750644    -0.61000
C701        C  0.43913901  0.93771299  0.43224339     0.95800
C702        C  0.43323221  0.55893733  0.43536719     0.95600
N703        N  0.46288077  0.52786405  0.05554769    -0.06600
N704        N  0.45684367  0.54642941  0.07520776    -0.59100
N705        N  0.44599336  0.96688405  0.03358620    -0.04700
N706        N  0.42659164  0.94814989  0.03891282    -0.60300
N707        N  0.46610625  0.96738548  0.05446624    -0.06600
N708        N  0.46065128  0.94906032  0.07446432    -0.59300
N709        N  0.44282151  0.52744312  0.03462710    -0.04300
N710        N  0.42269782  0.54573157  0.03964713    -0.60400
Mn711      Mn  0.44406839  0.99750829  0.99917338     1.18400
C712        C  0.43196225  0.55768783  0.06481245     0.97900
C713        C  0.43611769  0.93695585  0.06430200     0.98500
N714        N  0.03363060  0.53229595  0.44496353    -0.06600
N715        N  0.03957515  0.54955034  0.42395839    -0.62900
N716        N  0.05719660  0.97289193  0.46565155    -0.05400
N717        N  0.07766312  0.95485834  0.46101141    -0.63600
N718        N  0.03697604  0.97168104  0.44489369    -0.06100
N719        N  0.04325822  0.95271986  0.42572986    -0.63200
N720        N  0.05374470  0.53328565  0.46582807    -0.05000
N721        N  0.07386161  0.55111295  0.45930356    -0.63900
Mn722      Mn  0.00064681  0.50054378  0.44364841     1.10700
C723        C  0.06481311  0.56103739  0.43307610     0.99100
C724        C  0.06849171  0.94217773  0.43630260     0.99200
N725        N  0.03593323  0.97073011  0.05534132    -0.06100
N726        N  0.04299508  0.95256273  0.07506285    -0.61500
N727        N  0.05215451  0.53307939  0.03627443    -0.05500
N728        N  0.07052031  0.55240371  0.04300457    -0.58200
N729        N  0.03160237  0.53118670  0.05660440    -0.06800
N730        N  0.03553329  0.54911864  0.07745926    -0.61100
N731        N  0.05662773  0.97261564  0.03517233    -0.05700
N732        N  0.07808696  0.95582794  0.04073502    -0.58300
Mn733      Mn  0.99911894  0.49913140  0.05627874     1.20200
Mn734      Mn  0.05566870  0.50315166  0.00075119     1.10100
Cl735      Cl  0.99987667  0.50006563  0.99996116    -0.86200
C736        C  0.06938928  0.94341268  0.06565426     0.96100
C737        C  0.05984143  0.56225211  0.06877861     0.95900
N738        N  0.28504624  0.77934542  0.19378181    -0.06400
N739        N  0.29154681  0.79684881  0.17317038    -0.58500
N740        N  0.30376240  0.71834804  0.21426629    -0.06100
N741        N  0.32367561  0.70027224  0.20763666    -0.60600
N742        N  0.28302095  0.71887999  0.19398920    -0.05700
N743        N  0.28846055  0.70122236  0.17310786    -0.58500
N744        N  0.30572864  0.77871752  0.21408400    -0.05300
N745        N  0.32673145  0.79569062  0.20774804    -0.61000
C746        C  0.31757515  0.80684536  0.18225275     0.95800
C747        C  0.31383121  0.68976741  0.18194851     0.95600
N748        N  0.28529496  0.71940935  0.30527027    -0.06600
N749        N  0.29168949  0.70168501  0.32571389    -0.59100
N750        N  0.30671256  0.77951808  0.28362466    -0.04700
N751        N  0.32651864  0.79817713  0.28777880    -0.60300
N752        N  0.28687346  0.78021231  0.30475107    -0.06600
N753        N  0.29275669  0.79943736  0.32368993    -0.59300
N754        N  0.30520792  0.71899738  0.28420090    -0.04300
N755        N  0.32548507  0.70109589  0.28989257    -0.60400
Mn756      Mn  0.30602111  0.74882342  0.24909181     1.18400
C757        C  0.31684077  0.69038465  0.31580430     0.97900
C758        C  0.31732864  0.81071228  0.31259395     0.98500
N759        N  0.21337247  0.72097512  0.19570237    -0.06600
N760        N  0.20669860  0.70261862  0.17599396    -0.62900
N761        N  0.19589816  0.78266986  0.21628051    -0.05400
N762        N  0.17685887  0.80179545  0.21098947    -0.63600
N763        N  0.21580414  0.78161540  0.19522717    -0.06100
N764        N  0.21071303  0.79999508  0.17520605    -0.63200
N765        N  0.19317771  0.72207334  0.21648255    -0.05000
N766        N  0.17233129  0.70454625  0.21122118    -0.63900
Mn767      Mn  0.24922788  0.75015172  0.19390755     1.10700
C768        C  0.18120009  0.69231209  0.18606373     0.99100
C769        C  0.18663923  0.81271339  0.18553465     0.99200
N770        N  0.21791153  0.78199283  0.30672980    -0.06100
N771        N  0.21344858  0.80024480  0.32718464    -0.61500
N772        N  0.19451153  0.72254340  0.28641468    -0.05500
N773        N  0.17329039  0.70579316  0.29286262    -0.58200
N774        N  0.21534532  0.72158009  0.30658550    -0.06800
N775        N  0.20865216  0.70413856  0.32720133    -0.61100
N776        N  0.19730855  0.78306044  0.28635899    -0.05700
N777        N  0.17845473  0.80217483  0.29250904    -0.58300
Mn778      Mn  0.25140650  0.75065769  0.30666100     1.20200
Mn779      Mn  0.19444969  0.75264735  0.25137265     1.10100
Cl780      Cl  0.25026124  0.75049304  0.25025690    -0.86200
C781        C  0.18905014  0.81294450  0.31780689     0.96100
C782        C  0.18234486  0.69453303  0.31836180     0.95900
C783        C  0.09221316  0.60057856  0.13376953    -0.22700
C784        C  0.10792680  0.62030510  0.11900191     0.09200
C785        C  0.10680812  0.62160889  0.08782253     0.09600
C786        C  0.09054910  0.60263944  0.07208368    -0.17600
C787        C  0.07495015  0.58268257  0.08677980    -0.28100
C788        C  0.07551743  0.58186166  0.11815881     0.18000
C789        C  0.12633016  0.63868149  0.13667191     0.11900
C790        C  0.12250734  0.64315165  0.07120072    -0.12400
H791        H  0.09000345  0.60340036  0.04806984     0.12200
C792        C  0.05971608  0.56079697  0.13549447    -0.23200
H793        H  0.09341942  0.59962558  0.15769963     0.07900
C794        C  0.11383612  0.65852221  0.15473758     0.04200
C795        C  0.13233003  0.67523949  0.17114550    -0.20500
C796        C  0.16305520  0.67292996  0.16949513    -0.12800
C797        C  0.17549948  0.65276683  0.15161583     0.12900
C798        C  0.15691250  0.63576653  0.13569106    -0.23200
C799        C  0.08107168  0.66252722  0.15612813    -0.06300
H800        H  0.12271628  0.69065615  0.18472476     0.14400
C801        C  0.20821522  0.64857819  0.14967541    -0.16400
H802        H  0.16628244  0.62011207  0.12215290     0.08800
H803        H  0.03563783  0.56267258  0.13216231     0.06600
H804        H  0.06393222  0.56253555  0.15958457     0.07800
H805        H  0.06725048  0.54089418  0.12826222     0.06900
H806        H  0.14649196  0.64173495  0.07499097     0.01700
H807        H  0.11454446  0.66276366  0.07887217     0.02200
H808        H  0.11858921  0.64171431  0.04696158     0.05700
H809        H  0.07507094  0.67949426  0.17054647     0.04700
H810        H  0.07032094  0.64460275  0.16516035    -0.01100
H811        H  0.07242419  0.66646770  0.13358029     0.00400
H812        H  0.21380906  0.63081370  0.13621681     0.04100
H813        H  0.21745723  0.64571798  0.17215867     0.06000
H814        H  0.21875502  0.66581553  0.13899000     0.06900
C815        C  0.10110135  0.59818398  0.36947365    -0.22700
C816        C  0.11567117  0.61819952  0.38500250     0.09200
C817        C  0.11352819  0.61944208  0.41607614     0.09600
C818        C  0.09679004  0.60041722  0.43101445    -0.17600
C819        C  0.08209086  0.58021783  0.41558389    -0.28100
C820        C  0.08487187  0.57875701  0.38429513     0.18000
C821        C  0.13310111  0.63763330  0.36813590     0.11900
C822        C  0.12870298  0.64096054  0.43337738    -0.12400
H823        H  0.09493892  0.60147505  0.45490710     0.12200
C824        C  0.07279702  0.55648715  0.36563032    -0.23200
H825        H  0.10317262  0.59726936  0.34558750     0.07900
C826        C  0.16315144  0.63354534  0.36213028     0.04200
C827        C  0.17871534  0.65270187  0.34613540    -0.20500
C828        C  0.16476222  0.67559902  0.33568081    -0.12800
C829        C  0.13458992  0.67974429  0.34203293     0.12900
C830        C  0.11913113  0.66047976  0.35788848    -0.23200
C831        C  0.17863216  0.60885549  0.37230275    -0.06300
H832        H  0.20177527  0.64958971  0.34131931     0.14400
C833        C  0.11809366  0.70456123  0.33386658    -0.16400
H834        H  0.09606524  0.66352059  0.36280268     0.08800
H835        H  0.09059320  0.54832440  0.35146960     0.06600
H836        H  0.05507049  0.56413354  0.35111374     0.07800
H837        H  0.06438209  0.53964043  0.37853558     0.06900
H838        H  0.12041537  0.66058234  0.42618784     0.01700
H839        H  0.15274327  0.64000421  0.42954470     0.02200
H840        H  0.12473528  0.63907143  0.45751146     0.05700
H841        H  0.20211587  0.60876429  0.36568548     0.04700
H842        H  0.16794119  0.59121448  0.36236422    -0.01100
H843        H  0.17756107  0.60738629  0.39676267     0.00400
H844        H  0.10029486  0.69959941  0.31802122     0.04100
H845        H  0.13207665  0.72008017  0.32406767     0.06000
H846        H  0.10810972  0.71329407  0.35408552     0.06900
C847        C  0.13396819  0.90547400  0.09875527    -0.22700
C848        C  0.11921915  0.88675031  0.11594618     0.09200
C849        C  0.08827721  0.88636967  0.11625638     0.09600
C850        C  0.07268921  0.90495999  0.09941685    -0.17600
C851        C  0.08732232  0.92377124  0.08201770    -0.28100
C852        C  0.11850477  0.92396388  0.08166021     0.18000
C853        C  0.13675633  0.86783034  0.13358252     0.11900
C854        C  0.07175693  0.86616777  0.13410588    -0.12400
H855        H  0.04890295  0.90469179  0.09971977     0.12200
C856        C  0.13583784  0.94398307  0.06426318    -0.23200
H857        H  0.15775132  0.90562843  0.09886080     0.07900
C858        C  0.15095147  0.84607917  0.12021881     0.04200
C859        C  0.16772379  0.82894705  0.13776388    -0.20500
C860        C  0.17037354  0.83285564  0.16843081    -0.12800
C861        C  0.15643449  0.85497193  0.18171917     0.12900
C862        C  0.13967172  0.87207531  0.16408176    -0.23200
C863        C  0.14777533  0.84058032  0.08759750    -0.06300
H864        H  0.17820807  0.81194807  0.12754563     0.14400
C865        C  0.15942760  0.86182116  0.21402482    -0.16400
H866        H  0.12904616  0.88907659  0.17413337     0.08800
H867        H  0.15983123  0.94190105  0.06799279     0.06600
H868        H  0.12942894  0.96430612  0.07107437     0.07800
H869        H  0.13187323  0.94120688  0.04022934     0.06900
H870        H  0.07703100  0.86852973  0.15793533     0.01700
H871        H  0.07805746  0.84595678  0.12678162     0.02200
H872        H  0.04763263  0.86830437  0.13144146     0.05700
H873        H  0.15977701  0.82239687  0.08086315     0.04700
H874        H  0.15670992  0.85735330  0.07465509    -0.01100
H875        H  0.12422404  0.83787650  0.08204413     0.00400
H876        H  0.16760346  0.88241096  0.21632989     0.04100
H877        H  0.17513428  0.84899293  0.22587098     0.06000
H878        H  0.13762128  0.86038459  0.22486744     0.06900
C879        C  0.41049407  0.61525317  0.11489963    -0.22700
C880        C  0.37989751  0.61268810  0.11499889     0.09200
C881        C  0.36646041  0.59301857  0.09752309     0.09600
C882        C  0.38409695  0.57584145  0.08076586    -0.17600
C883        C  0.41486310  0.57799441  0.08097249    -0.28100
C884        C  0.42821120  0.59847800  0.09772718     0.18000
C885        C  0.36235648  0.63183107  0.13236779     0.11900
C886        C  0.33356491  0.59008346  0.09676973    -0.12400
H887        H  0.37378949  0.56027482  0.06791940     0.12200
C888        C  0.46070172  0.60422068  0.09714627    -0.23200
H889        H  0.42057534  0.63090451  0.12782398     0.07900
C890        C  0.35631210  0.62789628  0.16262723     0.04200
C891        C  0.34037457  0.64719929  0.17826222    -0.20500
C892        C  0.33052354  0.67031577  0.16426969    -0.12800
C893        C  0.33742024  0.67451897  0.13406147     0.12900
C894        C  0.35279027  0.65494375  0.11842006    -0.23200
C895        C  0.36674190  0.60339292  0.17831107    -0.06300
H896        H  0.33544976  0.64419802  0.20146828     0.14400
C897        C  0.33060735  0.69983654  0.11787756    -0.16400
H898        H  0.35812070  0.65805702  0.09531744     0.08800
H899        H  0.47024976  0.60061539  0.11937347     0.06600
H900        H  0.46418799  0.62530362  0.09126744     0.07800
H901        H  0.47290197  0.59242518  0.08058233     0.06900
H902        H  0.32339979  0.60860895  0.08851671     0.01700
H903        H  0.32523413  0.58595188  0.11936606     0.02200
H904        H  0.32663427  0.57363317  0.08200948     0.05700
H905        H  0.36009374  0.60338158  0.20195053     0.04700
H906        H  0.39106188  0.60222602  0.17730100    -0.01100
H907        H  0.35726162  0.58558377  0.16753761     0.00400
H908        H  0.35121365  0.70806146  0.10856253     0.04100
H909        H  0.32103987  0.71541732  0.13214504     0.06000
H910        H  0.31517427  0.69568050  0.09942689     0.06900
C911        C  0.39294541  0.87855607  0.40912947    -0.22700
C912        C  0.38920025  0.88370988  0.37895611     0.09200
C913        C  0.40302689  0.90579233  0.36611039     0.09600
C914        C  0.42024394  0.92242554  0.38392729    -0.17600
C915        C  0.42348366  0.91770873  0.41436483    -0.28100
C916        C  0.41015337  0.89513158  0.42699947     0.18000
C917        C  0.37096416  0.86547013  0.36116508     0.11900
C918        C  0.39899580  0.91212762  0.33381080    -0.12400
H919        H  0.43038750  0.93973356  0.37422924     0.12200
C920        C  0.41424919  0.88734930  0.45885198    -0.23200
H921        H  0.38258783  0.86129303  0.41873293     0.07900
C922        C  0.38357780  0.84394639  0.34591185     0.04200
C923        C  0.36546663  0.82714266  0.32931382    -0.20500
C924        C  0.33492516  0.83092931  0.32823600    -0.12800
C925        C  0.32231965  0.85277692  0.34334367     0.12900
C926        C  0.34058375  0.86967359  0.35979020    -0.23200
C927        C  0.41601413  0.83828845  0.34785927    -0.06300
H928        H  0.37514220  0.81034880  0.31794542     0.14400
C929        C  0.29008900  0.85951533  0.34195738    -0.16400
H930        H  0.33110168  0.88639756  0.37146399     0.08800
H931        H  0.42292190  0.86683904  0.45993988     0.06600
H932        H  0.39273439  0.88809179  0.47034593     0.07800
H933        H  0.43002007  0.90010740  0.47081976     0.06900
H934        H  0.37534674  0.91536282  0.32908167     0.01700
H935        H  0.40713906  0.89553378  0.31994160     0.02200
H936        H  0.41114447  0.93025468  0.32739744     0.05700
H937        H  0.42221666  0.82049617  0.33478752     0.04700
H938        H  0.42222493  0.83477581  0.37127170    -0.01100
H939        H  0.42873116  0.85530507  0.33928346     0.00400
H940        H  0.28030547  0.85783051  0.36436374     0.04100
H941        H  0.27757074  0.84679144  0.32651166     0.06000
H942        H  0.28741533  0.88018283  0.33415690     0.06900
C943        C  0.38471242  0.61769815  0.41561862    -0.22700
C944        C  0.38207315  0.61416932  0.38495465     0.09200
C945        C  0.39661580  0.59283866  0.37106401     0.09600
C946        C  0.41365167  0.57560011  0.38818550    -0.17600
C947        C  0.41616185  0.57890494  0.41892755    -0.28100
C948        C  0.40162161  0.60037397  0.43286618     0.18000
C949        C  0.36493767  0.63360491  0.36758122     0.11900
C950        C  0.39358113  0.58785040  0.33830874    -0.12400
H951        H  0.42457206  0.55904415  0.37756136     0.12200
C952        C  0.40423901  0.60638523  0.46546373    -0.23200
H953        H  0.37387982  0.63437716  0.42609457     0.07900
C954        C  0.33399873  0.63448198  0.36859897     0.04200
C955        C  0.31894770  0.65318744  0.35139465    -0.20500
C956        C  0.33409482  0.67072533  0.33281423    -0.12800
C957        C  0.36523218  0.66975609  0.33189235     0.12900
C958        C  0.38016309  0.65134212  0.34951258    -0.23200
C959        C  0.31686595  0.61538925  0.38737286    -0.06300
H960        H  0.29521026  0.65391287  0.35220453     0.14400
C961        C  0.38312037  0.68842116  0.31322236    -0.16400
H962        H  0.40392457  0.65064409  0.34916188     0.08800
H963        H  0.38232595  0.60469553  0.47604752     0.06600
H964        H  0.41237056  0.62691330  0.46847994     0.07800
H965        H  0.41974851  0.59323817  0.47719339     0.06900
H966        H  0.40268019  0.60472484  0.32567268     0.01700
H967        H  0.37004505  0.58530021  0.33258433     0.02200
H968        H  0.40552978  0.56972508  0.33128935     0.05700
H969        H  0.29281875  0.61829430  0.38492718     0.04700
H970        H  0.32251030  0.61823241  0.41105408    -0.01100
H971        H  0.32218959  0.59478117  0.38069852     0.00400
H972        H  0.40706521  0.68563926  0.31667653     0.04100
H973        H  0.37770568  0.70920694  0.31907536     0.06000
H974        H  0.37863817  0.68481403  0.28941649     0.06900
C975        C  0.14476007  0.87339086  0.34088141    -0.22700
C976        C  0.13974221  0.86783473  0.37078649     0.09200
C977        C  0.15202622  0.84492620  0.38348759     0.09600
C978        C  0.16877742  0.82778779  0.36575251    -0.17600
C979        C  0.17330978  0.83298608  0.33558756    -0.28100
C980        C  0.16166475  0.85640292  0.32314771     0.18000
C981        C  0.12180400  0.88651305  0.38843042     0.11900
C982        C  0.14733017  0.83857458  0.41567168    -0.12400
H983        H  0.17776327  0.80989714  0.37531066     0.12200
C984        C  0.16740121  0.86465570  0.29171056    -0.23200
H985        H  0.13566547  0.89128540  0.33140201     0.07900
C986        C  0.13426764  0.90933368  0.40122233     0.04200
C987        C  0.11632628  0.92669116  0.41738882    -0.20500
C988        C  0.08612757  0.92195184  0.42069114    -0.12800
C989        C  0.07376292  0.89871952  0.40831209     0.12900
C990        C  0.09181260  0.88138402  0.39216160    -0.23200
C991        C  0.16643388  0.91541818  0.39760010    -0.06300
H992        H  0.12581375  0.94446111  0.42687722     0.14400
C993        C  0.04207296  0.89098156  0.41244741    -0.16400
H994        H  0.08246671  0.86360520  0.38253530     0.08800
H995        H  0.17753076  0.88461748  0.29156949     0.06600
H996        H  0.14630764  0.86547006  0.27946318     0.07800
H997        H  0.18261814  0.85121229  0.27989324     0.06900
H998        H  0.12351208  0.83622242  0.42014664     0.01700
H999        H  0.15610439  0.85484205  0.42964099     0.02200
H1000       H  0.15859277  0.81996375  0.42209924     0.05700
H1001       H  0.17266098  0.93399345  0.40918000     0.04700
H1002       H  0.17171501  0.91772034  0.37377584    -0.01100
H1003       H  0.17979535  0.89905118  0.40688745     0.00400
H1004       H  0.03091778  0.89034143  0.39061502     0.04100
H1005       H  0.02977902  0.90456461  0.42717343     0.06000
H1006       H  0.04099388  0.87103017  0.42257305     0.06900
C1007       C  0.38440109  0.88065073  0.08481065    -0.22700
C1008       C  0.38696002  0.88083577  0.11563643     0.09200
C1009       C  0.40646945  0.89854264  0.12951071     0.09600
C1010       C  0.42263382  0.91623788  0.11211272    -0.17600
C1011       C  0.41957657  0.91671793  0.08115090    -0.28100
C1012       C  0.40042693  0.89836585  0.06732021     0.18000
C1013       C  0.36894003  0.86217070  0.13288692     0.11900
C1014       C  0.40986408  0.89894507  0.16266033    -0.12400
H1015       H  0.43727384  0.93016678  0.12287899     0.12200
C1016       C  0.39734222  0.89662829  0.03421890    -0.23200
H1017       H  0.36960064  0.86661734  0.07444537     0.07900
C1018       C  0.33953171  0.86796217  0.14024788     0.04200
C1019       C  0.32308040  0.84933041  0.15610117    -0.18900
C1020       C  0.33551212  0.82516427  0.16468887    -0.12800
C1021       C  0.36482539  0.81912956  0.15657973     0.12900
C1022       C  0.38127444  0.83793424  0.14109707    -0.23200
C1023       C  0.32570490  0.89386379  0.13154687    -0.06300
H1024       H  0.30058744  0.85376205  0.16216998     0.14400
C1025       C  0.37915109  0.79275397  0.16253388    -0.16400
H1026       H  0.40369726  0.83346665  0.13483418     0.08800
H1027       H  0.38717740  0.91494910  0.02546774     0.06600
H1028       H  0.38315184  0.87983623  0.02740505     0.07800
H1029       H  0.41930601  0.89357578  0.02413611     0.06900
H1030       H  0.41770385  0.87936977  0.17042771     0.01700
H1031       H  0.38840815  0.90344980  0.17318052     0.02200
H1032       H  0.42593047  0.91413536  0.16997823     0.05700
H1033       H  0.30263262  0.89536507  0.13933182     0.04700
H1034       H  0.32574353  0.89579327  0.10708873    -0.01100
H1035       H  0.33830947  0.91049032  0.14137443     0.00400
H1036       H  0.38714262  0.78416064  0.14136244     0.04100
H1037       H  0.36414800  0.77804059  0.17237701     0.06000
H1038       H  0.39817125  0.79555422  0.17759649     0.06900
N1039       N  0.46769092  0.96882130  0.94343232    -0.06400
N1040       N  0.46343890  0.95057195  0.92293388    -0.58500
N1041       N  0.44378560  0.52831434  0.96488668    -0.06100
N1042       N  0.42352549  0.54645998  0.95991374    -0.60600
N1043       N  0.46439006  0.52934937  0.94452875    -0.05700
N1044       N  0.45853265  0.54816850  0.92524659    -0.58500
N1045       N  0.44704506  0.96761341  0.96372767    -0.05300
N1046       N  0.42838979  0.94841958  0.95750646    -0.61000
C1047       C  0.43913896  0.93771302  0.93224337     0.95800
C1048       C  0.43323226  0.55893738  0.93536721     0.95600
N1049       N  0.46288081  0.52786405  0.55554769    -0.06600
N1050       N  0.45684372  0.54642941  0.57520774    -0.59100
N1051       N  0.44599335  0.96688407  0.53358621    -0.04700
N1052       N  0.42659165  0.94814991  0.53891282    -0.60300
N1053       N  0.46610626  0.96738550  0.55446621    -0.06600
N1054       N  0.46065132  0.94906031  0.57446430    -0.59300
N1055       N  0.44282152  0.52744312  0.53462712    -0.04300
N1056       N  0.42269784  0.54573153  0.53964715    -0.60400
Mn1057     Mn  0.44406838  0.99750831  0.49917339     1.18400
C1058       C  0.43196230  0.55768783  0.56481248     0.97900
C1059       C  0.43611770  0.93695585  0.56430197     0.98500
N1060       N  0.03363063  0.53229595  0.94496352    -0.06600
N1061       N  0.03957516  0.54955039  0.92395841    -0.62900
N1062       N  0.05719658  0.97289195  0.96565159    -0.05400
N1063       N  0.07766313  0.95485838  0.96101146    -0.63600
N1064       N  0.03697601  0.97168101  0.94489375    -0.06100
N1065       N  0.04325819  0.95271981  0.92572995    -0.63200
N1066       N  0.05374475  0.53328566  0.96582804    -0.05000
N1067       N  0.07386165  0.55111294  0.95930355    -0.63900
Mn1068     Mn  0.00064683  0.50054379  0.94364842     1.10700
C1069       C  0.06481310  0.56103743  0.93307607     0.99100
C1070       C  0.06849172  0.94217773  0.93630270     0.99200
N1071       N  0.03593327  0.97073010  0.55534130    -0.06100
N1072       N  0.04299513  0.95256272  0.57506282    -0.61500
N1073       N  0.05215444  0.53307940  0.53627443    -0.05500
N1074       N  0.07052021  0.55240377  0.54300456    -0.58200
N1075       N  0.03160234  0.53118669  0.55660443    -0.06800
N1076       N  0.03553324  0.54911863  0.57745928    -0.61100
N1077       N  0.05662776  0.97261563  0.53517232    -0.05700
N1078       N  0.07808700  0.95582791  0.54073498    -0.58300
Mn1079     Mn  0.99911893  0.49913138  0.55627875     1.20200
Mn1080     Mn  0.05566868  0.50315167  0.50075119     1.10100
Cl1081     Cl  0.99987667  0.50006563  0.49996115    -0.86200
C1082       C  0.06938928  0.94341266  0.56565425     0.96100
C1083       C  0.05984134  0.56225215  0.56877861     0.95900
N1084       N  0.28504622  0.77934540  0.69378183    -0.06400
N1085       N  0.29154680  0.79684879  0.67317039    -0.58500
N1086       N  0.30376239  0.71834801  0.71426633    -0.06100
N1087       N  0.32367559  0.70027222  0.70763670    -0.60600
N1088       N  0.28302094  0.71887998  0.69398925    -0.05700
N1089       N  0.28846055  0.70122235  0.67310788    -0.58500
N1090       N  0.30572862  0.77871751  0.71408402    -0.05300
N1091       N  0.32673142  0.79569062  0.70774807    -0.61000
C1092       C  0.31757513  0.80684535  0.68225278     0.95800
C1093       C  0.31383122  0.68976741  0.68194857     0.95600
N1094       N  0.28529500  0.71940937  0.80527033    -0.06600
N1095       N  0.29168951  0.70168505  0.82571393    -0.59100
N1096       N  0.30671254  0.77951810  0.78362467    -0.04700
N1097       N  0.32651861  0.79817718  0.78777879    -0.60300
N1098       N  0.28687346  0.78021233  0.80475109    -0.06600
N1099       N  0.29275668  0.79943738  0.82368993    -0.59300
N1100       N  0.30520793  0.71899742  0.78420094    -0.04300
N1101       N  0.32548508  0.70109590  0.78989260    -0.60400
Mn1102     Mn  0.30602110  0.74882343  0.74909183     1.18400
C1103       C  0.31684083  0.69038467  0.81580432     0.97900
C1104       C  0.31732861  0.81071232  0.81259391     0.98500
N1105       N  0.21337245  0.72097509  0.69570239    -0.06600
N1106       N  0.20669859  0.70261860  0.67599398    -0.62900
N1107       N  0.19589816  0.78266985  0.71628051    -0.05400
N1108       N  0.17685888  0.80179544  0.71098944    -0.63600
N1109       N  0.21580413  0.78161537  0.69522717    -0.06100
N1110       N  0.21071304  0.79999504  0.67520603    -0.63200
N1111       N  0.19317768  0.72207332  0.71648258    -0.05000
N1112       N  0.17233127  0.70454623  0.71122120    -0.63900
Mn1113     Mn  0.24922786  0.75015170  0.69390755     1.10700
C1114       C  0.18120006  0.69231208  0.68606376     0.99100
C1115       C  0.18663920  0.81271338  0.68553466     0.99200
N1116       N  0.21791157  0.78199284  0.80672979    -0.06100
N1117       N  0.21344861  0.80024481  0.82718466    -0.61500
N1118       N  0.19451153  0.72254344  0.78641472    -0.05500
N1119       N  0.17329040  0.70579321  0.79286265    -0.58200
N1120       N  0.21534533  0.72158012  0.80658554    -0.06800
N1121       N  0.20865217  0.70413860  0.82720136    -0.61100
N1122       N  0.19730855  0.78306046  0.78635902    -0.05700
N1123       N  0.17845472  0.80217479  0.79250910    -0.58300
Mn1124     Mn  0.25140652  0.75065771  0.80666101     1.20200
Mn1125     Mn  0.19444967  0.75264736  0.75137267     1.10100
Cl1126     Cl  0.25026121  0.75049307  0.75025689    -0.86200
C1127       C  0.18905012  0.81294448  0.81780694     0.96100
C1128       C  0.18234487  0.69453307  0.81836182     0.95900
C1129       C  0.09221321  0.60057858  0.63376946    -0.22700
C1130       C  0.10792677  0.62030517  0.61900184     0.09200
C1131       C  0.10680803  0.62160895  0.58782247     0.09600
C1132       C  0.09054899  0.60263949  0.57208364    -0.17600
C1133       C  0.07495007  0.58268262  0.58677979    -0.28100
C1134       C  0.07551745  0.58186168  0.61815882     0.18000
C1135       C  0.12633011  0.63868156  0.63667185     0.11900
C1136       C  0.12250740  0.64315166  0.57120067    -0.12400
H1137       H  0.09000328  0.60340043  0.54806981     0.12200
C1138       C  0.05971608  0.56079697  0.63549434    -0.23200
H1139       H  0.09341958  0.59962557  0.65769971     0.07900
C1140       C  0.11383609  0.65852225  0.65473753     0.04200
C1141       C  0.13232999  0.67523949  0.67114549    -0.20500
C1142       C  0.16305518  0.67292996  0.66949514    -0.12800
C1143       C  0.17549941  0.65276682  0.65161583     0.12900
C1144       C  0.15691244  0.63576657  0.63569104    -0.23200
C1145       C  0.08107165  0.66252730  0.65612814    -0.06300
H1146       H  0.12271621  0.69065619  0.68472480     0.14400
C1147       C  0.20821523  0.64857838  0.64967543    -0.16400
H1148       H  0.16628241  0.62011204  0.62215284     0.08800
H1149       H  0.03563811  0.56267260  0.63216242     0.06600
H1150       H  0.06393240  0.56253564  0.65958511     0.07800
H1151       H  0.06725049  0.54089432  0.62826232     0.06900
H1152       H  0.14649134  0.64173507  0.57499077     0.01700
H1153       H  0.11454424  0.66276396  0.57887218     0.02200
H1154       H  0.11858902  0.64171438  0.54696132     0.05700
H1155       H  0.07507096  0.67949414  0.67054632     0.04700
H1156       H  0.07032089  0.64460279  0.66516020    -0.01100
H1157       H  0.07242413  0.66646784  0.63358003     0.00400
H1158       H  0.21380908  0.63081326  0.63621650     0.04100
H1159       H  0.21745714  0.64571784  0.67215871     0.06000
H1160       H  0.21875474  0.66581499  0.63899035     0.06900
C1161       C  0.10110148  0.59818393  0.86947335    -0.22700
C1162       C  0.11567124  0.61819951  0.88500247     0.09200
C1163       C  0.11352824  0.61944210  0.91607616     0.09600
C1164       C  0.09679004  0.60041724  0.93101462    -0.17600
C1165       C  0.08209089  0.58021784  0.91558392    -0.28100
C1166       C  0.08487192  0.57875699  0.88429512     0.18000
C1167       C  0.13310114  0.63763331  0.86813588     0.11900
C1168       C  0.12870315  0.64096048  0.93337722    -0.12400
H1169       H  0.09493897  0.60147507  0.95490621     0.12200
C1170       C  0.07279711  0.55648709  0.86563030    -0.23200
H1171       H  0.10317268  0.59726933  0.84558874     0.07900
C1172       C  0.16315147  0.63354538  0.86213026     0.04200
C1173       C  0.17871538  0.65270194  0.84613542    -0.20500
C1174       C  0.16476221  0.67559905  0.83568083    -0.12800
C1175       C  0.13458994  0.67974430  0.84203292     0.12900
C1176       C  0.11913140  0.66047972  0.85788838    -0.23200
C1177       C  0.17863216  0.60885548  0.87230269    -0.06300
H1178       H  0.20177537  0.64958981  0.84131937     0.14400
C1179       C  0.11809355  0.70456121  0.83386654    -0.16400
H1180       H  0.09606421  0.66352069  0.86280282     0.08800
H1181       H  0.09059306  0.54832443  0.85146978     0.06600
H1182       H  0.05507052  0.56413347  0.85111378     0.07800
H1183       H  0.06438211  0.53964036  0.87853570     0.06900
H1184       H  0.12041538  0.66058245  0.92618778     0.01700
H1185       H  0.15274297  0.64000419  0.92954475     0.02200
H1186       H  0.12473525  0.63907140  0.95751182     0.05700
H1187       H  0.20211617  0.60876437  0.86568542     0.04700
H1188       H  0.16794140  0.59121467  0.86236419    -0.01100
H1189       H  0.17756112  0.60738628  0.89676260     0.00400
H1190       H  0.10029513  0.69959950  0.81802141     0.04100
H1191       H  0.13207681  0.72008034  0.82406758     0.06000
H1192       H  0.10810975  0.71329407  0.85408549     0.06900
C1193       C  0.13396794  0.90547397  0.59875528    -0.22700
C1194       C  0.11921910  0.88675028  0.61594616     0.09200
C1195       C  0.08827721  0.88636967  0.61625635     0.09600
C1196       C  0.07268937  0.90495996  0.59941681    -0.17600
C1197       C  0.08732237  0.92377121  0.58201767    -0.28100
C1198       C  0.11850476  0.92396386  0.58166024     0.18000
C1199       C  0.13675627  0.86783032  0.63358254     0.11900
C1200       C  0.07175689  0.86616781  0.63410603    -0.12400
H1201       H  0.04890210  0.90469174  0.59971968     0.12200
C1202       C  0.13583775  0.94398294  0.56426298    -0.23200
H1203       H  0.15775233  0.90562844  0.59886085     0.07900
C1204       C  0.15095137  0.84607913  0.62021881     0.04200
C1205       C  0.16772391  0.82894680  0.63776375    -0.20500
C1206       C  0.17037356  0.83285565  0.66843080    -0.12800
C1207       C  0.15643448  0.85497196  0.68171920     0.12900
C1208       C  0.13967172  0.87207528  0.66408172    -0.23200
C1209       C  0.14777537  0.84058023  0.58759756    -0.06300
H1210       H  0.17820743  0.81194902  0.62754623     0.14400
C1211       C  0.15942769  0.86182117  0.71402481    -0.16400
H1212       H  0.12904612  0.88907664  0.67413337     0.08800
H1213       H  0.15983174  0.94190103  0.56799305     0.06600
H1214       H  0.12942884  0.96430657  0.57107468     0.07800
H1215       H  0.13187350  0.94120703  0.54023031     0.06900
H1216       H  0.07703082  0.86852964  0.65793484     0.01700
H1217       H  0.07805741  0.84595659  0.62678149     0.02200
H1218       H  0.04763245  0.86830440  0.63144141     0.05700
H1219       H  0.15977672  0.82239704  0.58086325     0.04700
H1220       H  0.15670968  0.85735320  0.57465514    -0.01100
H1221       H  0.12422337  0.83787635  0.58204410     0.00400
H1222       H  0.16760344  0.88241077  0.71632992     0.04100
H1223       H  0.17513416  0.84899290  0.72587097     0.06000
H1224       H  0.13762099  0.86038458  0.72486758     0.06900
C1225       C  0.41049405  0.61525311  0.61489952    -0.22700
C1226       C  0.37989756  0.61268812  0.61499891     0.09200
C1227       C  0.36646048  0.59301858  0.59752315     0.09600
C1228       C  0.38409703  0.57584146  0.58076596    -0.17600
C1229       C  0.41486315  0.57799444  0.58097253    -0.28100
C1230       C  0.42821124  0.59847806  0.59772716     0.18000
C1231       C  0.36235651  0.63183108  0.63236786     0.11900
C1232       C  0.33356498  0.59008350  0.59676979    -0.12400
H1233       H  0.37378942  0.56027460  0.56791939     0.12200
C1234       C  0.46070184  0.60422050  0.59714631    -0.23200
H1235       H  0.42057571  0.63090509  0.62782431     0.07900
C1236       C  0.35631210  0.62789632  0.66262728     0.04200
C1237       C  0.34037460  0.64719931  0.67826201    -0.20500
C1238       C  0.33052355  0.67031578  0.66426972    -0.12800
C1239       C  0.33742025  0.67451898  0.63406155     0.12900
C1240       C  0.35279030  0.65494379  0.61842003    -0.23200
C1241       C  0.36674192  0.60339278  0.67831085    -0.06300
H1242       H  0.33544949  0.64419786  0.70146924     0.14400
C1243       C  0.33060729  0.69983651  0.61787750    -0.16400
H1244       H  0.35812067  0.65805704  0.59531772     0.08800
H1245       H  0.47024964  0.60061557  0.61937296     0.06600
H1246       H  0.46418813  0.62530433  0.59126715     0.07800
H1247       H  0.47290185  0.59242538  0.58058246     0.06900
H1248       H  0.32339985  0.60860906  0.58851656     0.01700
H1249       H  0.32523417  0.58595200  0.61936585     0.02200
H1250       H  0.32663428  0.57363305  0.58200935     0.05700
H1251       H  0.36009364  0.60338169  0.70195129     0.04700
H1252       H  0.39106201  0.60222614  0.67730108    -0.01100
H1253       H  0.35726207  0.58558447  0.66753815     0.00400
H1254       H  0.35121398  0.70806156  0.60856256     0.04100
H1255       H  0.32103986  0.71541746  0.63214519     0.06000
H1256       H  0.31517471  0.69568064  0.59942726     0.06900
C1257       C  0.39294549  0.87855618  0.90912940    -0.22700
C1258       C  0.38920020  0.88370989  0.87895613     0.09200
C1259       C  0.40302678  0.90579236  0.86611041     0.09600
C1260       C  0.42024391  0.92242570  0.88392721    -0.17600
C1261       C  0.42348360  0.91770875  0.91436483    -0.28100
C1262       C  0.41015337  0.89513155  0.92699946     0.18000
C1263       C  0.37096413  0.86547013  0.86116506     0.11900
C1264       C  0.39899573  0.91212770  0.83381078    -0.12400
H1265       H  0.43038710  0.93973314  0.87422950     0.12200
C1266       C  0.41424927  0.88734932  0.95885199    -0.23200
H1267       H  0.38258762  0.86129253  0.91873317     0.07900
C1268       C  0.38357779  0.84394640  0.84591186     0.04200
C1269       C  0.36546649  0.82714289  0.82931395    -0.20500
C1270       C  0.33492515  0.83092935  0.82823596    -0.12800
C1271       C  0.32231964  0.85277693  0.84334367     0.12900
C1272       C  0.34058365  0.86967379  0.85979031    -0.23200
C1273       C  0.41601410  0.83828850  0.84785914    -0.06300
H1274       H  0.37514262  0.81034806  0.81794492     0.14400
C1275       C  0.29008897  0.85951531  0.84195730    -0.16400
H1276       H  0.33110200  0.88639703  0.87146360     0.08800
H1277       H  0.42292196  0.86683895  0.95993986     0.06600
H1278       H  0.39273439  0.88809175  0.97034593     0.07800
H1279       H  0.43001997  0.90010727  0.97081966     0.06900
H1280       H  0.37534645  0.91536288  0.82908166     0.01700
H1281       H  0.40713890  0.89553395  0.81994166     0.02200
H1282       H  0.41114422  0.93025466  0.82739749     0.05700
H1283       H  0.42221658  0.82049633  0.83478773     0.04700
H1284       H  0.42222498  0.83477578  0.87127231    -0.01100
H1285       H  0.42873100  0.85530493  0.83928363     0.00400
H1286       H  0.28030531  0.85783050  0.86436417     0.04100
H1287       H  0.27757084  0.84679159  0.82651197     0.06000
H1288       H  0.28741526  0.88018278  0.83415698     0.06900
C1289       C  0.38471235  0.61769832  0.91561869    -0.22700
C1290       C  0.38207314  0.61416933  0.88495461     0.09200
C1291       C  0.39661580  0.59283860  0.87106397     0.09600
C1292       C  0.41365179  0.57559996  0.88818540    -0.17600
C1293       C  0.41616193  0.57890495  0.91892754    -0.28100
C1294       C  0.40162167  0.60037402  0.93286616     0.18000
C1295       C  0.36493770  0.63360488  0.86758120     0.11900
C1296       C  0.39358101  0.58785037  0.83830877    -0.12400
H1297       H  0.42457166  0.55904476  0.87756177     0.12200
C1298       C  0.40423900  0.60638516  0.96546372    -0.23200
H1299       H  0.37388035  0.63437644  0.92609406     0.07900
C1300       C  0.33399872  0.63448198  0.86859896     0.04200
C1301       C  0.31894778  0.65318746  0.85139466    -0.20500
C1302       C  0.33409483  0.67072537  0.83281423    -0.12800
C1303       C  0.36523222  0.66975605  0.83189230     0.12900
C1304       C  0.38016341  0.65134208  0.84951251    -0.23200
C1305       C  0.31686596  0.61538931  0.88737289    -0.06300
H1306       H  0.29521022  0.65391291  0.85220454     0.14400
C1307       C  0.38312035  0.68842121  0.81322231    -0.16400
H1308       H  0.40392341  0.65064404  0.84916182     0.08800
H1309       H  0.38232634  0.60469565  0.97604734     0.06600
H1310       H  0.41237082  0.62691376  0.96847990     0.07800
H1311       H  0.41974854  0.59323832  0.97719330     0.06900
H1312       H  0.40267999  0.60472459  0.82567269     0.01700
H1313       H  0.37004494  0.58530004  0.83258443     0.02200
H1314       H  0.40552982  0.56972475  0.83128931     0.05700
H1315       H  0.29281885  0.61829432  0.88492722     0.04700
H1316       H  0.32251035  0.61823244  0.91105404    -0.01100
H1317       H  0.32218963  0.59478104  0.88069850     0.00400
H1318       H  0.40706545  0.68563914  0.81667645     0.04100
H1319       H  0.37770586  0.70920647  0.81907512     0.06000
H1320       H  0.37863818  0.68481390  0.78941624     0.06900
C1321       C  0.14475998  0.87339088  0.84088138    -0.22700
C1322       C  0.13974214  0.86783468  0.87078649     0.09200
C1323       C  0.15202623  0.84492619  0.88348765     0.09600
C1324       C  0.16877747  0.82778774  0.86575259    -0.17600
C1325       C  0.17330978  0.83298605  0.83558761    -0.28100
C1326       C  0.16166476  0.85640289  0.82314775     0.18000
C1327       C  0.12180394  0.88651302  0.88843045     0.11900
C1328       C  0.14733014  0.83857464  0.91567172    -0.12400
H1329       H  0.17776319  0.80989745  0.87531059     0.12200
C1330       C  0.16740110  0.86465577  0.79171055    -0.23200
H1331       H  0.13566553  0.89128506  0.83140215     0.07900
C1332       C  0.13426759  0.90933360  0.90122232     0.04200
C1333       C  0.11632619  0.92669091  0.91738876    -0.20500
C1334       C  0.08612759  0.92195177  0.92069122    -0.12800
C1335       C  0.07376290  0.89871952  0.90831217     0.12900
C1336       C  0.09181268  0.88138426  0.89216176    -0.23200
C1337       C  0.16643386  0.91541822  0.89760017    -0.06300
H1338       H  0.12581428  0.94446196  0.92687778     0.14400
C1339       C  0.04207301  0.89098149  0.91244743    -0.16400
H1340       H  0.08246604  0.86360410  0.88253470     0.08800
H1341       H  0.17753071  0.88461726  0.79156949     0.06600
H1342       H  0.14630817  0.86546990  0.77946345     0.07800
H1343       H  0.18261853  0.85121198  0.77989311     0.06900
H1344       H  0.12351220  0.83622246  0.92014670     0.01700
H1345       H  0.15610442  0.85484204  0.92964104     0.02200
H1346       H  0.15859287  0.81996360  0.92209935     0.05700
H1347       H  0.17266089  0.93399310  0.90917977     0.04700
H1348       H  0.17171503  0.91772024  0.87377563    -0.01100
H1349       H  0.17979540  0.89905099  0.90688752     0.00400
H1350       H  0.03091770  0.89034152  0.89061518     0.04100
H1351       H  0.02977883  0.90456481  0.92717389     0.06000
H1352       H  0.04099385  0.87103018  0.92257305     0.06900
C1353       C  0.38440102  0.88065063  0.58481061    -0.22700
C1354       C  0.38696004  0.88083578  0.61563646     0.09200
C1355       C  0.40646951  0.89854263  0.62951071     0.09600
C1356       C  0.42263389  0.91623784  0.61211270    -0.17600
C1357       C  0.41957662  0.91671793  0.58115088    -0.28100
C1358       C  0.40042697  0.89836582  0.56732020     0.18000
C1359       C  0.36894004  0.86217071  0.63288697     0.11900
C1360       C  0.40986409  0.89894508  0.66266033    -0.12400
H1361       H  0.43727394  0.93016671  0.62287895     0.12200
C1362       C  0.39734241  0.89662833  0.53421886    -0.23200
H1363       H  0.36960100  0.86661765  0.57444564     0.07900
C1364       C  0.33953171  0.86796213  0.64024790     0.04200
C1365       C  0.32308041  0.84933038  0.65610117    -0.18900
C1366       C  0.33551212  0.82516426  0.66468889    -0.12800
C1367       C  0.36482536  0.81912954  0.65657977     0.12900
C1368       C  0.38127427  0.83793428  0.64109720    -0.23200
C1369       C  0.32570497  0.89386378  0.63154669    -0.06300
H1370       H  0.30058728  0.85376204  0.66217000     0.14400
C1371       C  0.37915129  0.79275409  0.66253406    -0.16400
H1372       H  0.40369807  0.83346648  0.63483406     0.08800
H1373       H  0.38717760  0.91494885  0.52546776     0.06600
H1374       H  0.38315170  0.87983590  0.52740494     0.07800
H1375       H  0.41930590  0.89357570  0.52413623     0.06900
H1376       H  0.41770380  0.87936977  0.67042775     0.01700
H1377       H  0.38840820  0.90344987  0.67318047     0.02200
H1378       H  0.42593055  0.91413537  0.66997821     0.05700
H1379       H  0.30263212  0.89536503  0.63933200     0.04700
H1380       H  0.32574348  0.89579323  0.60708935    -0.01100
H1381       H  0.33830938  0.91049028  0.64137451     0.00400
H1382       H  0.38714259  0.78416041  0.64136194     0.04100
H1383       H  0.36414753  0.77804021  0.67237722     0.06000
H1384       H  0.39817044  0.79555399  0.67759580     0.06900
N1385       N  0.96769094  0.46882127  0.44343232    -0.06400
N1386       N  0.96343891  0.45057189  0.42293390    -0.58500
N1387       N  0.94378561  0.02831438  0.46488669    -0.06100
N1388       N  0.92352550  0.04645999  0.45991375    -0.60600
N1389       N  0.96439007  0.02934939  0.44452875    -0.05700
N1390       N  0.95853261  0.04816849  0.42524657    -0.58500
N1391       N  0.94704506  0.46761342  0.46372765    -0.05300
N1392       N  0.92838976  0.44841959  0.45750644    -0.61000
C1393       C  0.93913898  0.43771301  0.43224337     0.95800
C1394       C  0.93323225  0.05893737  0.43536719     0.95600
N1395       N  0.96288077  0.02786404  0.05554769    -0.06600
N1396       N  0.95684368  0.04642938  0.07520775    -0.59100
N1397       N  0.94599335  0.46688405  0.03358621    -0.04700
N1398       N  0.92659164  0.44814990  0.03891282    -0.60300
N1399       N  0.96610624  0.46738548  0.05446623    -0.06600
N1400       N  0.96065128  0.44906031  0.07446432    -0.59300
N1401       N  0.94282149  0.02744311  0.03462711    -0.04300
N1402       N  0.92269781  0.04573155  0.03964715    -0.60400
Mn1403     Mn  0.94406838  0.49750829  0.99917338     1.18400
C1404       C  0.93196225  0.05768782  0.06481248     0.97900
C1405       C  0.93611766  0.43695585  0.06430200     0.98500
N1406       N  0.53363059  0.03229597  0.44496353    -0.06600
N1407       N  0.53957513  0.04955039  0.42395840    -0.62900
N1408       N  0.55719659  0.47289194  0.46565158    -0.05400
N1409       N  0.57766313  0.45485838  0.46101143    -0.63600
N1410       N  0.53697603  0.47168102  0.44489372    -0.06100
N1411       N  0.54325820  0.45271984  0.42572991    -0.63200
N1412       N  0.55374472  0.03328567  0.46582806    -0.05000
N1413       N  0.57386163  0.05111294  0.45930354    -0.63900
Mn1414     Mn  0.50064680  0.00054380  0.44364842     1.10700
C1415       C  0.56481310  0.06103740  0.43307609     0.99100
C1416       C  0.56849172  0.44217773  0.43630264     0.99200
N1417       N  0.53593326  0.47073014  0.05534131    -0.06100
N1418       N  0.54299515  0.45256276  0.07506286    -0.61500
N1419       N  0.55215446  0.03307940  0.03627444    -0.05500
N1420       N  0.57052025  0.05240375  0.04300457    -0.58200
N1421       N  0.53160234  0.03118670  0.05660440    -0.06800
N1422       N  0.53553325  0.04911865  0.07745927    -0.61100
N1423       N  0.55662775  0.47261566  0.03517234    -0.05700
N1424       N  0.57808701  0.45582797  0.04073501    -0.58300
Mn1425     Mn  0.49911892  0.99913141  0.05627875     1.20200
Mn1426     Mn  0.55566870  0.00315166  0.00075119     1.10100
Cl1427     Cl  0.49987667  0.00006563  0.99996117    -0.86200
C1428       C  0.56938930  0.44341272  0.06565428     0.96100
C1429       C  0.55984137  0.06225214  0.06877860     0.95900
N1430       N  0.78504622  0.27934539  0.19378183    -0.06400
N1431       N  0.79154681  0.29684876  0.17317037    -0.58500
N1432       N  0.80376237  0.21834801  0.21426633    -0.06100
N1433       N  0.82367558  0.20027222  0.20763670    -0.60600
N1434       N  0.78302091  0.21887997  0.19398926    -0.05700
N1435       N  0.78846050  0.20122233  0.17310790    -0.58500
N1436       N  0.80572864  0.27871748  0.21408400    -0.05300
N1437       N  0.82673146  0.29569055  0.20774801    -0.61000
C1438       C  0.81757518  0.30684528  0.18225272     0.95800
C1439       C  0.81383117  0.18976739  0.18194859     0.95600
N1440       N  0.78529495  0.21940935  0.30527034    -0.06600
N1441       N  0.79168946  0.20168504  0.32571395    -0.59100
N1442       N  0.80671257  0.27951808  0.28362466    -0.04700
N1443       N  0.82651864  0.29817714  0.28777878    -0.60300
N1444       N  0.78687346  0.28021232  0.30475108    -0.06600
N1445       N  0.79275670  0.29943738  0.32368991    -0.59300
N1446       N  0.80520791  0.21899740  0.28420094    -0.04300
N1447       N  0.82548505  0.20109590  0.28989265    -0.60400
Mn1448     Mn  0.80602110  0.24882341  0.24909183     1.18400
C1449       C  0.81684078  0.19038467  0.31580436     0.97900
C1450       C  0.81732863  0.31071230  0.31259393     0.98500
N1451       N  0.71337242  0.22097511  0.19570239    -0.06600
N1452       N  0.70669855  0.20261861  0.17599397    -0.62900
N1453       N  0.69589814  0.28266986  0.21628051    -0.05400
N1454       N  0.67685886  0.30179545  0.21098946    -0.63600
N1455       N  0.71580413  0.28161538  0.19522719    -0.06100
N1456       N  0.71071304  0.29999505  0.17520606    -0.63200
N1457       N  0.69317768  0.22207334  0.21648257    -0.05000
N1458       N  0.67233125  0.20454625  0.21122121    -0.63900
Mn1459     Mn  0.74922785  0.25015170  0.19390756     1.10700
C1460       C  0.68120004  0.19231209  0.18606376     0.99100
C1461       C  0.68663923  0.31271339  0.18553465     0.99200
N1462       N  0.71791155  0.28199287  0.30672977    -0.06100
N1463       N  0.71344863  0.30024485  0.32718462    -0.61500
N1464       N  0.69451151  0.22254344  0.28641471    -0.05500
N1465       N  0.67329035  0.20579321  0.29286264    -0.58200
N1466       N  0.71534529  0.22158012  0.30658554    -0.06800
N1467       N  0.70865211  0.20413860  0.32720136    -0.61100
N1468       N  0.69730856  0.28306047  0.28635899    -0.05700
N1469       N  0.67845475  0.30217487  0.29250905    -0.58300
Mn1470     Mn  0.75140650  0.25065772  0.30666101     1.20200
Mn1471     Mn  0.69444966  0.25264737  0.25137267     1.10100
Cl1472     Cl  0.75026121  0.25049306  0.25025689    -0.86200
C1473       C  0.68905015  0.31294456  0.31780688     0.96100
C1474       C  0.68234484  0.19453309  0.31836183     0.95900
C1475       C  0.59221317  0.10057853  0.13376951    -0.22700
C1476       C  0.60792673  0.12030513  0.11900192     0.09200
C1477       C  0.60680800  0.12160894  0.08782254     0.09600
C1478       C  0.59054898  0.10263950  0.07208368    -0.17600
C1479       C  0.57495009  0.08268260  0.08677980    -0.28100
C1480       C  0.57551744  0.08186162  0.11815881     0.18000
C1481       C  0.62633007  0.13868151  0.13667193     0.11900
C1482       C  0.62250738  0.14315166  0.07120076    -0.12400
H1483       H  0.59000328  0.10340046  0.04806988     0.12200
C1484       C  0.55971610  0.06079701  0.13549453    -0.23200
H1485       H  0.59341952  0.09962550  0.15769969     0.07900
C1486       C  0.61383606  0.15852223  0.15473761     0.04200
C1487       C  0.63232998  0.17523945  0.17114553    -0.20500
C1488       C  0.66305515  0.17292996  0.16949518    -0.12800
C1489       C  0.67549939  0.15276681  0.15161587     0.12900
C1490       C  0.65691246  0.13576646  0.13569103    -0.23200
C1491       C  0.58107161  0.16252722  0.15612824    -0.06300
H1492       H  0.62271617  0.19065620  0.18472487     0.14400
C1493       C  0.70821521  0.14857837  0.14967551    -0.16400
H1494       H  0.66628217  0.12011235  0.12215320     0.08800
H1495       H  0.53563808  0.06267246  0.13216236     0.06600
H1496       H  0.56393232  0.06253542  0.15958438     0.07800
H1497       H  0.56725072  0.04089374  0.12826202     0.06900
H1498       H  0.64649132  0.14173506  0.07499086     0.01700
H1499       H  0.61454422  0.16276395  0.07887228     0.02200
H1500       H  0.61858901  0.14171438  0.04696141     0.05700
H1501       H  0.57507093  0.17949417  0.17054644     0.04700
H1502       H  0.57032095  0.14460290  0.16516022    -0.01100
H1503       H  0.57242408  0.16646784  0.13358007     0.00400
H1504       H  0.71380907  0.13081319  0.13621656     0.04100
H1505       H  0.71745709  0.14571789  0.17215866     0.06000
H1506       H  0.71875473  0.16581498  0.13899034     0.06900
C1507       C  0.60110138  0.09818396  0.36947359    -0.22700
C1508       C  0.61567113  0.11819954  0.38500250     0.09200
C1509       C  0.61352812  0.11944211  0.41607613     0.09600
C1510       C  0.59679001  0.10041723  0.43101444    -0.17600
C1511       C  0.58209087  0.08021784  0.41558388    -0.28100
C1512       C  0.58487188  0.07875701  0.38429512     0.18000
C1513       C  0.63310110  0.13763334  0.36813587     0.11900
C1514       C  0.62870300  0.14096063  0.43337728    -0.12400
H1515       H  0.59493887  0.10147509  0.45490705     0.12200
C1516       C  0.57279704  0.05648703  0.36563045    -0.23200
H1517       H  0.60317266  0.09726933  0.34558769     0.07900
C1518       C  0.66315139  0.13354538  0.36213026     0.04200
C1519       C  0.67871500  0.15270195  0.34613546    -0.20500
C1520       C  0.66476216  0.17559904  0.33568082    -0.12800
C1521       C  0.63458990  0.17974431  0.34203293     0.12900
C1522       C  0.61913117  0.16047977  0.35788845    -0.23200
C1523       C  0.67863212  0.10885551  0.37230273    -0.06300
H1524       H  0.70177653  0.14958958  0.34131906     0.14400
C1525       C  0.61809372  0.20456128  0.33386644    -0.16400
H1526       H  0.59606475  0.16352066  0.36280275     0.08800
H1527       H  0.59059326  0.04832438  0.35146960     0.06600
H1528       H  0.55507031  0.06413360  0.35111355     0.07800
H1529       H  0.56438227  0.03964072  0.37853535     0.06900
H1530       H  0.62041522  0.16058243  0.42618776     0.01700
H1531       H  0.65274275  0.14000432  0.42954477     0.02200
H1532       H  0.62473510  0.13907152  0.45751163     0.05700
H1533       H  0.70211583  0.10876430  0.36568546     0.04700
H1534       H  0.66794112  0.09121450  0.36236422    -0.01100
H1535       H  0.67756103  0.10738632  0.39676268     0.00400
H1536       H  0.60029475  0.19959942  0.31802124     0.04100
H1537       H  0.63207630  0.22007993  0.32406787     0.06000
H1538       H  0.60810947  0.21329426  0.35408594     0.06900
C1539       C  0.63396802  0.40547406  0.09875529    -0.22700
C1540       C  0.61921917  0.38675033  0.11594613     0.09200
C1541       C  0.58827728  0.38636966  0.11625627     0.09600
C1542       C  0.57268953  0.40495995  0.09941674    -0.17600
C1543       C  0.58732241  0.42377126  0.08201767    -0.28100
C1544       C  0.61850479  0.42396393  0.08166026     0.18000
C1545       C  0.63675638  0.36783038  0.13358250     0.11900
C1546       C  0.57175700  0.36616776  0.13410589    -0.12400
H1547       H  0.54890180  0.40469169  0.09971960     0.12200
C1548       C  0.63583782  0.44398318  0.06426313    -0.23200
H1549       H  0.65775236  0.40562855  0.09886087     0.07900
C1550       C  0.65095154  0.34607922  0.12021879     0.04200
C1551       C  0.66772394  0.32894700  0.13776380    -0.20500
C1552       C  0.67037360  0.33285567  0.16843080    -0.12800
C1553       C  0.65643453  0.35497197  0.18171918     0.12900
C1554       C  0.63967177  0.37207535  0.16408174    -0.23200
C1555       C  0.64777561  0.34058032  0.08759748    -0.06300
H1556       H  0.67820789  0.31194859  0.12754591     0.14400
C1557       C  0.65942757  0.36182124  0.21402478    -0.16400
H1558       H  0.62904624  0.38907657  0.17413330     0.08800
H1559       H  0.65983158  0.44190120  0.06799303     0.06600
H1560       H  0.62942891  0.46430631  0.07107455     0.07800
H1561       H  0.63187345  0.44120710  0.04022995     0.06900
H1562       H  0.57703088  0.36852959  0.15793472     0.01700
H1563       H  0.57805755  0.34595658  0.12678137     0.02200
H1564       H  0.54763249  0.36830433  0.13144125     0.05700
H1565       H  0.65977696  0.32239723  0.08086323     0.04700
H1566       H  0.65670997  0.35735336  0.07465511    -0.01100
H1567       H  0.62422371  0.33787648  0.08204398     0.00400
H1568       H  0.66760355  0.38241087  0.21632987     0.04100
H1569       H  0.67513450  0.34899274  0.22587112     0.06000
H1570       H  0.63762145  0.36038465  0.22486739     0.06900
C1571       C  0.91049405  0.11525309  0.11489955    -0.22700
C1572       C  0.87989756  0.11268812  0.11499892     0.09200
C1573       C  0.86646047  0.09301859  0.09752317     0.09600
C1574       C  0.88409700  0.07584147  0.08076598    -0.17600
C1575       C  0.91486312  0.07799441  0.08097255    -0.28100
C1576       C  0.92821124  0.09847800  0.09772721     0.18000
C1577       C  0.86235651  0.13183110  0.13236788     0.11900
C1578       C  0.83356492  0.09008354  0.09676974    -0.12400
H1579       H  0.87378937  0.06027458  0.06791937     0.12200
C1580       C  0.96070178  0.10422062  0.09714629    -0.23200
H1581       H  0.92057570  0.13090500  0.12782433     0.07900
C1582       C  0.85631203  0.12789630  0.16262727     0.04200
C1583       C  0.84037455  0.14719929  0.17826201    -0.20500
C1584       C  0.83052352  0.17031577  0.16426974    -0.12800
C1585       C  0.83742025  0.17451900  0.13406159     0.12900
C1586       C  0.85279032  0.15494381  0.11842011    -0.23200
C1587       C  0.86674192  0.10339281  0.17831099    -0.06300
H1588       H  0.83544940  0.14419783  0.20146928     0.14400
C1589       C  0.83060742  0.19983654  0.11787749    -0.16400
H1590       H  0.85812079  0.15805711  0.09531754     0.08800
H1591       H  0.97024982  0.10061531  0.11937352     0.06600
H1592       H  0.96418810  0.12530361  0.09126750     0.07800
H1593       H  0.97290199  0.09242514  0.08058237     0.06900
H1594       H  0.82339994  0.10860885  0.08851678     0.01700
H1595       H  0.82523411  0.08595193  0.11936614     0.02200
H1596       H  0.82663429  0.07363316  0.08200948     0.05700
H1597       H  0.86009350  0.10338155  0.20195084     0.04700
H1598       H  0.89106141  0.10222601  0.17730108    -0.01100
H1599       H  0.85726162  0.08558394  0.16753772     0.00400
H1600       H  0.85121358  0.20806148  0.10856279     0.04100
H1601       H  0.82103973  0.21541768  0.13214549     0.06000
H1602       H  0.81517460  0.19568070  0.09942729     0.06900
C1603       C  0.89294548  0.37855618  0.40912943    -0.22700
C1604       C  0.88920023  0.38370987  0.37895615     0.09200
C1605       C  0.90302685  0.40579229  0.36611041     0.09600
C1606       C  0.92024390  0.42242559  0.38392726    -0.17600
C1607       C  0.92348361  0.41770873  0.41436483    -0.28100
C1608       C  0.91015338  0.39513156  0.42699948     0.18000
C1609       C  0.87096413  0.36547012  0.36116510     0.11900
C1610       C  0.89899589  0.41212767  0.33381077    -0.12400
H1611       H  0.93038733  0.43973343  0.37422932     0.12200
C1612       C  0.91424922  0.38734930  0.45885199    -0.23200
H1613       H  0.88258758  0.36129256  0.41873321     0.07900
C1614       C  0.88357779  0.34394642  0.34591186     0.04200
C1615       C  0.86546662  0.32714270  0.32931381    -0.20500
C1616       C  0.83492518  0.33092934  0.32823597    -0.12800
C1617       C  0.82231963  0.35277692  0.34334366     0.12900
C1618       C  0.84058375  0.36967359  0.35979022    -0.23200
C1619       C  0.91601412  0.33828838  0.34785920    -0.06300
H1620       H  0.87514224  0.31034878  0.31794534     0.14400
C1621       C  0.79008907  0.35951543  0.34195735    -0.16400
H1622       H  0.83110165  0.38639758  0.37146405     0.08800
H1623       H  0.92292194  0.36683904  0.45993990     0.06600
H1624       H  0.89273445  0.38809180  0.47034592     0.07800
H1625       H  0.93002012  0.40010743  0.47081978     0.06900
H1626       H  0.87534668  0.41536273  0.32908156     0.01700
H1627       H  0.90713917  0.39553352  0.31994152     0.02200
H1628       H  0.91114429  0.43025426  0.32739750     0.05700
H1629       H  0.92221657  0.32049647  0.33478773     0.04700
H1630       H  0.92222496  0.33477585  0.37127185    -0.01100
H1631       H  0.92873121  0.35530523  0.33928341     0.00400
H1632       H  0.78030538  0.35783052  0.36436386     0.04100
H1633       H  0.77757061  0.34679128  0.32651150     0.06000
H1634       H  0.78741534  0.38018262  0.33415691     0.06900
C1635       C  0.88471234  0.11769831  0.41561872    -0.22700
C1636       C  0.88207314  0.11416932  0.38495464     0.09200
C1637       C  0.89661578  0.09283861  0.37106401     0.09600
C1638       C  0.91365171  0.07560010  0.38818549    -0.17600
C1639       C  0.91616191  0.07890496  0.41892754    -0.28100
C1640       C  0.90162166  0.10037400  0.43286618     0.18000
C1641       C  0.86493769  0.13360490  0.36758125     0.11900
C1642       C  0.89358101  0.08785050  0.33830876    -0.12400
H1643       H  0.92457197  0.05904430  0.37756145     0.12200
C1644       C  0.90423898  0.10638515  0.46546375    -0.23200
H1645       H  0.87388026  0.13437652  0.42609417     0.07900
C1646       C  0.83399872  0.13448196  0.36859901     0.04200
C1647       C  0.81894768  0.15318746  0.35139473    -0.20500
C1648       C  0.83409480  0.17072537  0.33281432    -0.12800
C1649       C  0.86523218  0.16975610  0.33189240     0.12900
C1650       C  0.88016316  0.15134212  0.34951259    -0.23200
C1651       C  0.81686591  0.11538932  0.38737291    -0.06300
H1652       H  0.79521038  0.15391289  0.35220461     0.14400
C1653       C  0.88312038  0.18842120  0.31322247    -0.16400
H1654       H  0.90392426  0.15064407  0.34916187     0.08800
H1655       H  0.88232632  0.10469563  0.47604740     0.06600
H1656       H  0.91237080  0.12691374  0.46847995     0.07800
H1657       H  0.91974855  0.09323828  0.47719334     0.06900
H1658       H  0.90267978  0.10472435  0.32567292     0.01700
H1659       H  0.87004480  0.08530002  0.33258445     0.02200
H1660       H  0.90552988  0.06972462  0.33128927     0.05700
H1661       H  0.79281900  0.11829415  0.38492718     0.04700
H1662       H  0.82251030  0.11823230  0.41105392    -0.01100
H1663       H  0.82218977  0.09478068  0.38069833     0.00400
H1664       H  0.90706512  0.18563929  0.31667659     0.04100
H1665       H  0.87770568  0.20920689  0.31907545     0.06000
H1666       H  0.87863813  0.18481406  0.28941643     0.06900
C1667       C  0.64476014  0.37339080  0.34088148    -0.22700
C1668       C  0.63974220  0.36783476  0.37078648     0.09200
C1669       C  0.65202623  0.34492624  0.38348759     0.09600
C1670       C  0.66877752  0.32778770  0.36575259    -0.17600
C1671       C  0.67330981  0.33298614  0.33558756    -0.28100
C1672       C  0.66166478  0.35640299  0.32314772     0.18000
C1673       C  0.62180396  0.38651304  0.38843044     0.11900
C1674       C  0.64733016  0.33857466  0.41567168    -0.12400
H1675       H  0.67776305  0.30989775  0.37531038     0.12200
C1676       C  0.66740114  0.36465574  0.29171053    -0.23200
H1677       H  0.63566528  0.39128585  0.33140181     0.07900
C1678       C  0.63426759  0.40933367  0.40122230     0.04200
C1679       C  0.61632626  0.42669118  0.41738882    -0.20500
C1680       C  0.58612755  0.42195179  0.42069118    -0.12800
C1681       C  0.57376290  0.39871949  0.40831218     0.12900
C1682       C  0.59181272  0.38138425  0.39216181    -0.23200
C1683       C  0.66643384  0.41541817  0.39760008    -0.06300
H1684       H  0.62581372  0.44446117  0.42687720     0.14400
C1685       C  0.54207303  0.39098143  0.41244754    -0.16400
H1686       H  0.58246612  0.36360405  0.38253479     0.08800
H1687       H  0.67753090  0.38461763  0.29156952     0.06600
H1688       H  0.64630803  0.36547010  0.27946339     0.07800
H1689       H  0.68261830  0.35121226  0.27989320     0.06900
H1690       H  0.62351222  0.33622245  0.42014667     0.01700
H1691       H  0.65610444  0.35484202  0.42964095     0.02200
H1692       H  0.65859292  0.31996359  0.42209930     0.05700
H1693       H  0.67266097  0.43399355  0.40918001     0.04700
H1694       H  0.67171497  0.41772037  0.37377577    -0.01100
H1695       H  0.67979528  0.39905125  0.40688738     0.00400
H1696       H  0.53091766  0.39034145  0.39061519     0.04100
H1697       H  0.52977885  0.40456484  0.42717392     0.06000
H1698       H  0.54099390  0.37103033  0.42257312     0.06900
C1699       C  0.88440109  0.38065087  0.08481072    -0.22700
C1700       C  0.88695997  0.38083577  0.11563642     0.09200
C1701       C  0.90646948  0.39854255  0.12951069     0.09600
C1702       C  0.92263388  0.41623781  0.11211272    -0.17600
C1703       C  0.91957653  0.41671793  0.08115090    -0.28100
C1704       C  0.90042684  0.39836589  0.06732021     0.18000
C1705       C  0.86894003  0.36217067  0.13288693     0.11900
C1706       C  0.90986407  0.39894507  0.16266029    -0.12400
H1707       H  0.93727395  0.43016661  0.12287895     0.12200
C1708       C  0.89734210  0.39662829  0.03421890    -0.23200
H1709       H  0.86960005  0.36661703  0.07444506     0.07900
C1710       C  0.83953170  0.36796210  0.14024789     0.04200
C1711       C  0.82308021  0.34933038  0.15610126    -0.18900
C1712       C  0.83551216  0.32516420  0.16468885    -0.12800
C1713       C  0.86482542  0.31912950  0.15657968     0.12900
C1714       C  0.88127423  0.33793426  0.14109712    -0.23200
C1715       C  0.82570491  0.39386376  0.13154687    -0.06300
H1716       H  0.80058817  0.35376181  0.16216984     0.14400
C1717       C  0.87915115  0.29275399  0.16253396    -0.16400
H1718       H  0.90369808  0.33346647  0.13483393     0.08800
H1719       H  0.88717722  0.41494937  0.02546771     0.06600
H1720       H  0.88315172  0.37983646  0.02740508     0.07800
H1721       H  0.91930581  0.39357581  0.02413609     0.06900
H1722       H  0.91770403  0.37936931  0.17042781     0.01700
H1723       H  0.88840850  0.40344968  0.17318041     0.02200
H1724       H  0.92593060  0.41413520  0.16997819     0.05700
H1725       H  0.80263234  0.39536496  0.13933185     0.04700
H1726       H  0.82574345  0.39579317  0.10708871    -0.01100
H1727       H  0.83830920  0.41049006  0.14137430     0.00400
H1728       H  0.88714271  0.28416036  0.14136168     0.04100
H1729       H  0.86414798  0.27804048  0.17237691     0.06000
H1730       H  0.89817088  0.29555405  0.17759591     0.06900
N1731       N  0.96769096  0.46882129  0.94343233    -0.06400
N1732       N  0.96343895  0.45057193  0.92293390    -0.58500
N1733       N  0.94378555  0.02831433  0.96488668    -0.06100
N1734       N  0.92352542  0.04645996  0.95991373    -0.60600
N1735       N  0.96439000  0.02934939  0.94452873    -0.05700
N1736       N  0.95853256  0.04816850  0.92524658    -0.58500
N1737       N  0.94704508  0.46761341  0.96372766    -0.05300
N1738       N  0.92838981  0.44841957  0.95750644    -0.61000
C1739       C  0.93913901  0.43771300  0.93224337     0.95800
C1740       C  0.93323217  0.05893737  0.93536720     0.95600
N1741       N  0.96288080  0.02786407  0.55554769    -0.06600
N1742       N  0.95684370  0.04642941  0.57520777    -0.59100
N1743       N  0.94599336  0.46688405  0.53358619    -0.04700
N1744       N  0.92659165  0.44814990  0.53891280    -0.60300
N1745       N  0.96610624  0.46738548  0.55446622    -0.06600
N1746       N  0.96065126  0.44906032  0.57446433    -0.59300
N1747       N  0.94282150  0.02744313  0.53462712    -0.04300
N1748       N  0.92269782  0.04573155  0.53964718    -0.60400
Mn1749     Mn  0.94406839  0.49750829  0.49917338     1.18400
C1750       C  0.93196224  0.05768781  0.56481250     0.97900
C1751       C  0.93611763  0.43695585  0.56430196     0.98500
N1752       N  0.53363063  0.03229596  0.94496352    -0.06600
N1753       N  0.53957519  0.04955037  0.92395841    -0.62900
N1754       N  0.55719660  0.47289196  0.96565158    -0.05400
N1755       N  0.57766314  0.45485836  0.96101146    -0.63600
N1756       N  0.53697604  0.47168099  0.94489374    -0.06100
N1757       N  0.54325821  0.45271979  0.92572994    -0.63200
N1758       N  0.55374476  0.03328564  0.96582804    -0.05000
N1759       N  0.57386168  0.05111291  0.95930355    -0.63900
Mn1760     Mn  0.50064682  0.00054379  0.94364842     1.10700
C1761       C  0.56481315  0.06103740  0.93307606     0.99100
C1762       C  0.56849173  0.44217771  0.93630271     0.99200
N1763       N  0.53593325  0.47073010  0.55534130    -0.06100
N1764       N  0.54299507  0.45256274  0.57506283    -0.61500
N1765       N  0.55215448  0.03307941  0.53627443    -0.05500
N1766       N  0.57052027  0.05240375  0.54300457    -0.58200
N1767       N  0.53160236  0.03118669  0.55660441    -0.06800
N1768       N  0.53553328  0.04911863  0.57745927    -0.61100
N1769       N  0.55662773  0.47261564  0.53517232    -0.05700
N1770       N  0.57808696  0.45582791  0.54073501    -0.58300
Mn1771     Mn  0.49911895  0.99913140  0.55627873     1.20200
Mn1772     Mn  0.55566870  0.00315168  0.50075117     1.10100
Cl1773     Cl  0.49987668  0.00006564  0.49996115    -0.86200
C1774       C  0.56938927  0.44341265  0.56565425     0.96100
C1775       C  0.55984136  0.06225214  0.56877864     0.95900
N1776       N  0.78504622  0.27934538  0.69378180    -0.06400
N1777       N  0.79154679  0.29684877  0.67317038    -0.58500
N1778       N  0.80376236  0.21834800  0.71426635    -0.06100
N1779       N  0.82367559  0.20027223  0.70763672    -0.60600
N1780       N  0.78302091  0.21887996  0.69398928    -0.05700
N1781       N  0.78846056  0.20122235  0.67310788    -0.58500
N1782       N  0.80572861  0.27871749  0.71408401    -0.05300
N1783       N  0.82673141  0.29569060  0.70774805    -0.61000
C1784       C  0.81757514  0.30684532  0.68225276     0.95800
C1785       C  0.81383123  0.18976742  0.68194859     0.95600
N1786       N  0.78529493  0.21940937  0.80527035    -0.06600
N1787       N  0.79168947  0.20168502  0.82571393    -0.59100
N1788       N  0.80671251  0.27951810  0.78362467    -0.04700
N1789       N  0.82651859  0.29817716  0.78777877    -0.60300
N1790       N  0.78687345  0.28021231  0.80475110    -0.06600
N1791       N  0.79275669  0.29943736  0.82368995    -0.59300
N1792       N  0.80520787  0.21899740  0.78420094    -0.04300
N1793       N  0.82548502  0.20109589  0.78989258    -0.60400
Mn1794     Mn  0.80602105  0.24882342  0.74909184     1.18400
C1795       C  0.81684072  0.19038465  0.81580433     0.97900
C1796       C  0.81732861  0.31071231  0.81259395     0.98500
N1797       N  0.71337242  0.22097508  0.69570239    -0.06600
N1798       N  0.70669858  0.20261856  0.67599402    -0.62900
N1799       N  0.69589815  0.28266988  0.71628050    -0.05400
N1800       N  0.67685888  0.30179550  0.71098945    -0.63600
N1801       N  0.71580411  0.28161538  0.69522716    -0.06100
N1802       N  0.71071305  0.29999505  0.67520603    -0.63200
N1803       N  0.69317765  0.22207334  0.71648257    -0.05000
N1804       N  0.67233123  0.20454624  0.71122120    -0.63900
Mn1805     Mn  0.74922784  0.25015168  0.69390755     1.10700
C1806       C  0.68120005  0.19231205  0.68606379     0.99100
C1807       C  0.68663926  0.31271341  0.68553464     0.99200
N1808       N  0.71791154  0.28199286  0.80672981    -0.06100
N1809       N  0.71344859  0.30024483  0.82718467    -0.61500
N1810       N  0.69451149  0.22254343  0.78641470    -0.05500
N1811       N  0.67329036  0.20579321  0.79286262    -0.58200
N1812       N  0.71534528  0.22158013  0.80658553    -0.06800
N1813       N  0.70865211  0.20413861  0.82720136    -0.61100
N1814       N  0.69730853  0.28306048  0.78635903    -0.05700
N1815       N  0.67845473  0.30217485  0.79250909    -0.58300
Mn1816     Mn  0.75140648  0.25065772  0.80666103     1.20200
Mn1817     Mn  0.69444965  0.25264738  0.75137266     1.10100
Cl1818     Cl  0.75026120  0.25049306  0.75025689    -0.86200
C1819       C  0.68905011  0.31294454  0.81780692     0.96100
C1820       C  0.68234480  0.19453308  0.81836180     0.95900
C1821       C  0.59221317  0.10057857  0.63376920    -0.22700
C1822       C  0.60792675  0.12030512  0.61900192     0.09200
C1823       C  0.60680802  0.12160896  0.58782256     0.09600
C1824       C  0.59054898  0.10263950  0.57208338    -0.17600
C1825       C  0.57495010  0.08268261  0.58677984    -0.28100
C1826       C  0.57551745  0.08186163  0.61815887     0.18000
C1827       C  0.62633013  0.13868151  0.63667189     0.11900
C1828       C  0.62250726  0.14315161  0.57120064    -0.12400
H1829       H  0.59000331  0.10340040  0.54807097     0.12200
C1830       C  0.55971610  0.06079696  0.63549438    -0.23200
H1831       H  0.59341956  0.09962550  0.65770086     0.07900
C1832       C  0.61383611  0.15852219  0.65473753     0.04200
C1833       C  0.63232997  0.17523947  0.67114553    -0.20500
C1834       C  0.66305518  0.17292990  0.66949515    -0.12800
C1835       C  0.67549942  0.15276678  0.65161583     0.12900
C1836       C  0.65691234  0.13576670  0.63569121    -0.23200
C1837       C  0.58107164  0.16252731  0.65612842    -0.06300
H1838       H  0.62271625  0.19065611  0.68472477     0.14400
C1839       C  0.70821523  0.14857836  0.64967539    -0.16400
H1840       H  0.66628286  0.12011130  0.62215222     0.08800
H1841       H  0.53563831  0.06267240  0.63216244     0.06600
H1842       H  0.56393249  0.06253549  0.65958497     0.07800
H1843       H  0.56725077  0.04089394  0.62826214     0.06900
H1844       H  0.64649171  0.14173505  0.57499094     0.01700
H1845       H  0.61454418  0.16276405  0.57887230     0.02200
H1846       H  0.61858910  0.14171441  0.54696172     0.05700
H1847       H  0.57507107  0.17949375  0.67054603     0.04700
H1848       H  0.57032097  0.14460281  0.66516023    -0.01100
H1849       H  0.57242391  0.16646785  0.63357958     0.00400
H1850       H  0.71380910  0.13081322  0.63621642     0.04100
H1851       H  0.71745719  0.14571782  0.67215865     0.06000
H1852       H  0.71875471  0.16581498  0.63899029     0.06900
C1853       C  0.60110147  0.09818395  0.86947336    -0.22700
C1854       C  0.61567117  0.11819959  0.88500247     0.09200
C1855       C  0.61352818  0.11944214  0.91607617     0.09600
C1856       C  0.59679005  0.10041724  0.93101466    -0.17600
C1857       C  0.58209093  0.08021782  0.91558392    -0.28100
C1858       C  0.58487196  0.07875698  0.88429512     0.18000
C1859       C  0.63310107  0.13763336  0.86813589     0.11900
C1860       C  0.62870301  0.14096058  0.93337724    -0.12400
H1861       H  0.59493901  0.10147504  0.95490607     0.12200
C1862       C  0.57279719  0.05648708  0.86563026    -0.23200
H1863       H  0.60317269  0.09726934  0.84558876     0.07900
C1864       C  0.66315142  0.13354541  0.86213028     0.04200
C1865       C  0.67871530  0.15270197  0.84613544    -0.20500
C1866       C  0.66476218  0.17559907  0.83568082    -0.12800
C1867       C  0.63458988  0.17974436  0.84203290     0.12900
C1868       C  0.61913108  0.16047981  0.85788844    -0.23200
C1869       C  0.67863209  0.10885554  0.87230274    -0.06300
H1870       H  0.70177531  0.14958982  0.84131938     0.14400
C1871       C  0.61809355  0.20456122  0.83386656    -0.16400
H1872       H  0.59606523  0.16352062  0.86280258     0.08800
H1873       H  0.59059299  0.04832448  0.85146987     0.06600
H1874       H  0.55507054  0.06413351  0.85111371     0.07800
H1875       H  0.56438209  0.03964034  0.87853568     0.06900
H1876       H  0.62041517  0.16058250  0.92618780     0.01700
H1877       H  0.65274289  0.14000437  0.92954476     0.02200
H1878       H  0.62473513  0.13907148  0.95751182     0.05700
H1879       H  0.70211598  0.10876438  0.86568547     0.04700
H1880       H  0.66794120  0.09121456  0.86236409    -0.01100
H1881       H  0.67756099  0.10738628  0.89676256     0.00400
H1882       H  0.60029497  0.19959951  0.81802125     0.04100
H1883       H  0.63207683  0.22008043  0.82406751     0.06000
H1884       H  0.60810973  0.21329413  0.85408541     0.06900
C1885       C  0.63396789  0.40547408  0.59875532    -0.22700
C1886       C  0.61921915  0.38675037  0.61594621     0.09200
C1887       C  0.58827724  0.38636971  0.61625642     0.09600
C1888       C  0.57268916  0.40495998  0.59941687    -0.17600
C1889       C  0.58732234  0.42377125  0.58201770    -0.28100
C1890       C  0.61850476  0.42396393  0.58166027     0.18000
C1891       C  0.63675635  0.36783039  0.63358254     0.11900
C1892       C  0.57175690  0.36616778  0.63410591    -0.12400
H1893       H  0.54890297  0.40469175  0.59971973     0.12200
C1894       C  0.63583782  0.44398299  0.56426303    -0.23200
H1895       H  0.65775247  0.40562856  0.59886089     0.07900
C1896       C  0.65095149  0.34607926  0.62021880     0.04200
C1897       C  0.66772388  0.32894717  0.63776386    -0.20500
C1898       C  0.67037363  0.33285573  0.66843078    -0.12800
C1899       C  0.65643454  0.35497199  0.68171918     0.12900
C1900       C  0.63967176  0.37207535  0.66408175    -0.23200
C1901       C  0.64777546  0.34058039  0.58759753    -0.06300
H1902       H  0.67820823  0.31194816  0.62754556     0.14400
C1903       C  0.65942774  0.36182122  0.71402483    -0.16400
H1904       H  0.62904612  0.38907673  0.67413343     0.08800
H1905       H  0.65983129  0.44190118  0.56799298     0.06600
H1906       H  0.62942871  0.46430676  0.57107469     0.07800
H1907       H  0.63187340  0.44120707  0.54023016     0.06900
H1908       H  0.57703100  0.36852965  0.65793534     0.01700
H1909       H  0.57805744  0.34595675  0.62678156     0.02200
H1910       H  0.54763267  0.36830438  0.63144151     0.05700
H1911       H  0.65977690  0.32239720  0.58086319     0.04700
H1912       H  0.65670976  0.35735340  0.57465514    -0.01100
H1913       H  0.62422357  0.33787648  0.58204410     0.00400
H1914       H  0.66760348  0.38241082  0.71632995     0.04100
H1915       H  0.67513421  0.34899296  0.72587096     0.06000
H1916       H  0.63762105  0.36038462  0.72486761     0.06900
C1917       C  0.91049397  0.11525302  0.61489948    -0.22700
C1918       C  0.87989754  0.11268810  0.61499892     0.09200
C1919       C  0.86646044  0.09301861  0.59752314     0.09600
C1920       C  0.88409702  0.07584155  0.58076601    -0.17600
C1921       C  0.91486310  0.07799443  0.58097256    -0.28100
C1922       C  0.92821117  0.09847802  0.59772717     0.18000
C1923       C  0.86235647  0.13183108  0.63236788     0.11900
C1924       C  0.83356490  0.09008351  0.59676980    -0.12400
H1925       H  0.87378917  0.06027434  0.56791910     0.12200
C1926       C  0.96070181  0.10422063  0.59714637    -0.23200
H1927       H  0.92057589  0.13090539  0.62782463     0.07900
C1928       C  0.85631207  0.12789630  0.66262728     0.04200
C1929       C  0.84037456  0.14719930  0.67826209    -0.20500
C1930       C  0.83052356  0.17031578  0.66426972    -0.12800
C1931       C  0.83742025  0.17451897  0.63406156     0.12900
C1932       C  0.85279023  0.15494374  0.61842023    -0.23200
C1933       C  0.86674187  0.10339277  0.67831089    -0.06300
H1934       H  0.83544950  0.14419789  0.70146905     0.14400
C1935       C  0.83060736  0.19983654  0.61787751    -0.16400
H1936       H  0.85812082  0.15805712  0.59531698     0.08800
H1937       H  0.97024958  0.10061548  0.61937301     0.06600
H1938       H  0.96418804  0.12530385  0.59126735     0.07800
H1939       H  0.97290195  0.09242519  0.58058228     0.06900
H1940       H  0.82339980  0.10860918  0.58851652     0.01700
H1941       H  0.82523415  0.08595207  0.61936573     0.02200
H1942       H  0.82663424  0.07363315  0.58200936     0.05700
H1943       H  0.86009353  0.10338161  0.70195122     0.04700
H1944       H  0.89106188  0.10222607  0.67730113    -0.01100
H1945       H  0.85726192  0.08558430  0.66753804     0.00400
H1946       H  0.85121381  0.20806150  0.60856264     0.04100
H1947       H  0.82103986  0.21541744  0.63214520     0.06000
H1948       H  0.81517461  0.19568062  0.59942716     0.06900
C1949       C  0.89294542  0.37855605  0.90912943    -0.22700
C1950       C  0.88920022  0.38370990  0.87895609     0.09200
C1951       C  0.90302683  0.40579235  0.86611038     0.09600
C1952       C  0.92024390  0.42242561  0.88392725    -0.17600
C1953       C  0.92348364  0.41770875  0.91436481    -0.28100
C1954       C  0.91015337  0.39513155  0.92699943     0.18000
C1955       C  0.87096414  0.36547016  0.86116506     0.11900
C1956       C  0.89899584  0.41212776  0.83381072    -0.12400
H1957       H  0.93038736  0.43973348  0.87422929     0.12200
C1958       C  0.91424943  0.38734946  0.95885196    -0.23200
H1959       H  0.88258792  0.36129304  0.91873285     0.07900
C1960       C  0.88357778  0.34394637  0.84591186     0.04200
C1961       C  0.86546662  0.32714266  0.82931381    -0.20500
C1962       C  0.83492515  0.33092931  0.82823595    -0.12800
C1963       C  0.82231962  0.35277693  0.84334363     0.12900
C1964       C  0.84058364  0.36967379  0.85979025    -0.23200
C1965       C  0.91601412  0.33828856  0.84785911    -0.06300
H1966       H  0.87514213  0.31034889  0.81794550     0.14400
C1967       C  0.79008901  0.35951549  0.84195722    -0.16400
H1968       H  0.83110205  0.38639695  0.87146346     0.08800
H1969       H  0.92292204  0.36683872  0.95993984     0.06600
H1970       H  0.89273388  0.38809169  0.97034609     0.07800
H1971       H  0.93001945  0.40010691  0.97081936     0.06900
H1972       H  0.87534656  0.41536281  0.82908158     0.01700
H1973       H  0.90713906  0.39553372  0.81994153     0.02200
H1974       H  0.91114416  0.43025433  0.82739752     0.05700
H1975       H  0.92221658  0.32049615  0.83478773     0.04700
H1976       H  0.92222498  0.33477570  0.87127253    -0.01100
H1977       H  0.92873080  0.35530456  0.83928380     0.00400
H1978       H  0.78030527  0.35783052  0.86436407     0.04100
H1979       H  0.77757063  0.34679130  0.82651161     0.06000
H1980       H  0.78741533  0.38018228  0.83415699     0.06900
C1981       C  0.88471234  0.11769823  0.91561866    -0.22700
C1982       C  0.88207309  0.11416934  0.88495464     0.09200
C1983       C  0.89661567  0.09283861  0.87106400     0.09600
C1984       C  0.91365169  0.07559991  0.88818537    -0.17600
C1985       C  0.91616183  0.07890494  0.91892754    -0.28100
C1986       C  0.90162161  0.10037404  0.93286616     0.18000
C1987       C  0.86493762  0.13360489  0.86758121     0.11900
C1988       C  0.89358111  0.08785035  0.83830876    -0.12400
H1989       H  0.92457143  0.05904489  0.87756187     0.12200
C1990       C  0.90423885  0.10638516  0.96546374    -0.23200
H1991       H  0.87388005  0.13437680  0.92609431     0.07900
C1992       C  0.83399871  0.13448193  0.86859895     0.04200
C1993       C  0.81894793  0.15318741  0.85139465    -0.20500
C1994       C  0.83409480  0.17072532  0.83281423    -0.12800
C1995       C  0.86523214  0.16975604  0.83189233     0.12900
C1996       C  0.88016305  0.15134208  0.84951255    -0.23200
C1997       C  0.81686576  0.11538934  0.88737287    -0.06300
H1998       H  0.79520917  0.15391287  0.85220455     0.14400
C1999       C  0.88312019  0.18842132  0.81322247    -0.16400
H2000       H  0.90392464  0.15064402  0.84916183     0.08800
H2001       H  0.88232683  0.10469573  0.97604717     0.06600
H2002       H  0.91237092  0.12691403  0.96847986     0.07800
H2003       H  0.91974872  0.09323830  0.97719332     0.06900
H2004       H  0.90267979  0.10472447  0.82567281     0.01700
H2005       H  0.87004419  0.08530005  0.83258430     0.02200
H2006       H  0.90552938  0.06972508  0.83128943     0.05700
H2007       H  0.79281930  0.11829411  0.88492723     0.04700
H2008       H  0.82251033  0.11823232  0.91105400    -0.01100
H2009       H  0.82218976  0.09478054  0.88069831     0.00400
H2010       H  0.90706572  0.18563908  0.81667652     0.04100
H2011       H  0.87770591  0.20920611  0.81907508     0.06000
H2012       H  0.87863807  0.18481386  0.78941598     0.06900
C2013       C  0.64475998  0.37339089  0.84088140    -0.22700
C2014       C  0.63974215  0.36783473  0.87078650     0.09200
C2015       C  0.65202619  0.34492623  0.88348765     0.09600
C2016       C  0.66877745  0.32778774  0.86575261    -0.17600
C2017       C  0.67330978  0.33298609  0.83558761    -0.28100
C2018       C  0.66166471  0.35640294  0.82314775     0.18000
C2019       C  0.62180398  0.38651306  0.88843045     0.11900
C2020       C  0.64733029  0.33857445  0.91567170    -0.12400
H2021       H  0.67776310  0.30989754  0.87531052     0.12200
C2022       C  0.66740122  0.36465580  0.79171056    -0.23200
H2023       H  0.63566545  0.39128515  0.83140213     0.07900
C2024       C  0.63426762  0.40933364  0.90122235     0.04200
C2025       C  0.61632619  0.42669090  0.91738875    -0.20500
C2026       C  0.58612761  0.42195180  0.92069124    -0.12800
C2027       C  0.57376295  0.39871951  0.90831221     0.12900
C2028       C  0.59181264  0.38138411  0.89216171    -0.23200
C2029       C  0.66643387  0.41541826  0.89760018    -0.06300
H2030       H  0.62581433  0.44446208  0.92687783     0.14400
C2031       C  0.54207300  0.39098157  0.91244746    -0.16400
H2032       H  0.58246643  0.36360473  0.88253510     0.08800
H2033       H  0.67753046  0.38461714  0.79156948     0.06600
H2034       H  0.64630752  0.36546995  0.77946318     0.07800
H2035       H  0.68261816  0.35121227  0.77989327     0.06900
H2036       H  0.62351154  0.33622245  0.92014675     0.01700
H2037       H  0.65610439  0.35484222  0.92964119     0.02200
H2038       H  0.65859235  0.31996423  0.92209914     0.05700
H2039       H  0.67266088  0.43399318  0.90917978     0.04700
H2040       H  0.67171503  0.41772029  0.87377565    -0.01100
H2041       H  0.67979543  0.39905106  0.90688753     0.00400
H2042       H  0.53091787  0.39034136  0.89061536     0.04100
H2043       H  0.52977903  0.40456456  0.92717367     0.06000
H2044       H  0.54099396  0.37102982  0.92257334     0.06900
C2045       C  0.88440090  0.38065071  0.58481061    -0.22700
C2046       C  0.88695995  0.38083579  0.61563645     0.09200
C2047       C  0.90646947  0.39854262  0.62951071     0.09600
C2048       C  0.92263393  0.41623795  0.61211277    -0.17600
C2049       C  0.91957654  0.41671797  0.58115089    -0.28100
C2050       C  0.90042684  0.39836588  0.56732019     0.18000
C2051       C  0.86893999  0.36217074  0.63288696     0.11900
C2052       C  0.90986413  0.39894505  0.66266031    -0.12400
H2053       H  0.93727346  0.43016632  0.62287865     0.12200
C2054       C  0.89734227  0.39662843  0.53421887    -0.23200
H2055       H  0.86960087  0.36661780  0.57444567     0.07900
C2056       C  0.83953164  0.36796216  0.64024792     0.04200
C2057       C  0.82308035  0.34933039  0.65610121    -0.18900
C2058       C  0.83551207  0.32516426  0.66468890    -0.12800
C2059       C  0.86482535  0.31912956  0.65657978     0.12900
C2060       C  0.88127450  0.33793426  0.64109712    -0.23200
C2061       C  0.82570485  0.39386375  0.63154670    -0.06300
H2062       H  0.80058744  0.35376200  0.66216999     0.14400
C2063       C  0.87915124  0.29275412  0.66253400    -0.16400
H2064       H  0.90369688  0.33346677  0.63483438     0.08800
H2065       H  0.88717751  0.41494892  0.52546778     0.06600
H2066       H  0.88315149  0.37983598  0.52740495     0.07800
H2067       H  0.91930574  0.39357573  0.52413622     0.06900
H2068       H  0.91770394  0.37936947  0.67042771     0.01700
H2069       H  0.88840841  0.40344975  0.67318051     0.02200
H2070       H  0.92593062  0.41413517  0.66997818     0.05700
H2071       H  0.80263228  0.39536507  0.63933200     0.04700
H2072       H  0.82574342  0.39579323  0.60708940    -0.01100
H2073       H  0.83830951  0.41049048  0.64137461     0.00400
H2074       H  0.88714263  0.28416051  0.64136206     0.04100
H2075       H  0.86414767  0.27804031  0.67237719     0.06000
H2076       H  0.89817073  0.29555411  0.67759603     0.06900
N2077       N  0.96769096  0.96882131  0.44343232    -0.06400
N2078       N  0.96343896  0.95057191  0.42293392    -0.58500
N2079       N  0.94378554  0.52831432  0.46488669    -0.06100
N2080       N  0.92352542  0.54645993  0.45991375    -0.60600
N2081       N  0.96439000  0.52934935  0.44452874    -0.05700
N2082       N  0.95853254  0.54816845  0.42524659    -0.58500
N2083       N  0.94704507  0.96761345  0.46372765    -0.05300
N2084       N  0.92838979  0.94841961  0.45750644    -0.61000
C2085       C  0.93913902  0.93771301  0.43224339     0.95800
C2086       C  0.93323218  0.55893731  0.43536719     0.95600
N2087       N  0.96288076  0.52786404  0.05554768    -0.06600
N2088       N  0.95684366  0.54642938  0.07520777    -0.59100
N2089       N  0.94599336  0.96688405  0.03358620    -0.04700
N2090       N  0.92659163  0.94814989  0.03891280    -0.60300
N2091       N  0.96610624  0.96738547  0.05446623    -0.06600
N2092       N  0.96065126  0.94906031  0.07446433    -0.59300
N2093       N  0.94282149  0.52744311  0.03462712    -0.04300
N2094       N  0.92269779  0.54573154  0.03964716    -0.60400
Mn2095     Mn  0.94406839  0.99750829  0.99917338     1.18400
C2096       C  0.93196223  0.55768780  0.06481249     0.97900
C2097       C  0.93611765  0.93695585  0.06430197     0.98500
N2098       N  0.53363063  0.53229596  0.44496351    -0.06600
N2099       N  0.53957518  0.54955035  0.42395840    -0.62900
N2100       N  0.55719660  0.97289196  0.46565156    -0.05400
N2101       N  0.57766313  0.95485840  0.46101139    -0.63600
N2102       N  0.53697602  0.97168103  0.44489370    -0.06100
N2103       N  0.54325822  0.95271987  0.42572988    -0.63200
N2104       N  0.55374475  0.53328564  0.46582807    -0.05000
N2105       N  0.57386166  0.55111292  0.45930355    -0.63900
Mn2106     Mn  0.50064683  0.50054379  0.44364841     1.10700
C2107       C  0.56481314  0.56103738  0.43307609     0.99100
C2108       C  0.56849174  0.94217777  0.43630261     0.99200
N2109       N  0.53593322  0.97073012  0.05534133    -0.06100
N2110       N  0.54299504  0.95256275  0.07506284    -0.61500
N2111       N  0.55215447  0.53307940  0.03627443    -0.05500
N2112       N  0.57052025  0.55240373  0.04300457    -0.58200
N2113       N  0.53160233  0.53118669  0.05660441    -0.06800
N2114       N  0.53553325  0.54911864  0.07745926    -0.61100
N2115       N  0.55662772  0.97261565  0.03517234    -0.05700
N2116       N  0.57808694  0.95582793  0.04073504    -0.58300
Mn2117     Mn  0.49911893  0.49913139  0.05627875     1.20200
Mn2118     Mn  0.55566869  0.50315167  0.00075118     1.10100
Cl2119     Cl  0.49987667  0.50006561  0.99996117    -0.86200
C2120       C  0.56938922  0.94341268  0.06565428     0.96100
C2121       C  0.55984137  0.56225212  0.06877861     0.95900
N2122       N  0.78504621  0.77934541  0.19378181    -0.06400
N2123       N  0.79154677  0.79684878  0.17317037    -0.58500
N2124       N  0.80376236  0.71834803  0.21426632    -0.06100
N2125       N  0.82367562  0.70027225  0.20763668    -0.60600
N2126       N  0.78302092  0.71887997  0.19398924    -0.05700
N2127       N  0.78846055  0.70122235  0.17310787    -0.58500
N2128       N  0.80572859  0.77871751  0.21408400    -0.05300
N2129       N  0.82673142  0.79569061  0.20774803    -0.61000
C2130       C  0.81757512  0.80684534  0.18225273     0.95800
C2131       C  0.81383122  0.68976744  0.18194853     0.95600
N2132       N  0.78529492  0.71940933  0.30527030    -0.06600
N2133       N  0.79168945  0.70168499  0.32571388    -0.59100
N2134       N  0.80671253  0.77951809  0.28362467    -0.04700
N2135       N  0.82651862  0.79817713  0.28777881    -0.60300
N2136       N  0.78687343  0.78021231  0.30475107    -0.06600
N2137       N  0.79275667  0.79943736  0.32368995    -0.59300
N2138       N  0.80520790  0.71899738  0.28420092    -0.04300
N2139       N  0.82548506  0.70109590  0.28989259    -0.60400
Mn2140     Mn  0.80602108  0.74882342  0.24909182     1.18400
C2141       C  0.81684073  0.69038465  0.31580434     0.97900
C2142       C  0.81732864  0.81071227  0.31259396     0.98500
N2143       N  0.71337241  0.72097511  0.19570239    -0.06600
N2144       N  0.70669854  0.70261859  0.17599399    -0.62900
N2145       N  0.69589815  0.78266988  0.21628050    -0.05400
N2146       N  0.67685890  0.80179551  0.21098948    -0.63600
N2147       N  0.71580411  0.78161538  0.19522716    -0.06100
N2148       N  0.71071304  0.79999507  0.17520604    -0.63200
N2149       N  0.69317766  0.72207336  0.21648256    -0.05000
N2150       N  0.67233123  0.70454627  0.21122122    -0.63900
Mn2151     Mn  0.74922784  0.75015170  0.19390756     1.10700
C2152       C  0.68120004  0.69231208  0.18606376     0.99100
C2153       C  0.68663927  0.81271343  0.18553465     0.99200
N2154       N  0.71791151  0.78199284  0.30672980    -0.06100
N2155       N  0.71344859  0.80024482  0.32718465    -0.61500
N2156       N  0.69451149  0.72254341  0.28641469    -0.05500
N2157       N  0.67329036  0.70579317  0.29286261    -0.58200
N2158       N  0.71534528  0.72158009  0.30658551    -0.06800
N2159       N  0.70865212  0.70413856  0.32720132    -0.61100
N2160       N  0.69730854  0.78306047  0.28635900    -0.05700
N2161       N  0.67845475  0.80217488  0.29250905    -0.58300
Mn2162     Mn  0.75140648  0.75065769  0.30666101     1.20200
Mn2163     Mn  0.69444966  0.75264738  0.25137266     1.10100
Cl2164     Cl  0.75026122  0.75049304  0.25025691    -0.86200
C2165       C  0.68905013  0.81294456  0.31780689     0.96100
C2166       C  0.68234483  0.69453303  0.31836179     0.95900
C2167       C  0.59221316  0.60057854  0.13376952    -0.22700
C2168       C  0.60792675  0.62030511  0.11900192     0.09200
C2169       C  0.60680804  0.62160891  0.08782254     0.09600
C2170       C  0.59054903  0.60263945  0.07208369    -0.17600
C2171       C  0.57495011  0.58268257  0.08677981    -0.28100
C2172       C  0.57551743  0.58186163  0.11815882     0.18000
C2173       C  0.62633011  0.63868149  0.13667192     0.11900
C2174       C  0.62250739  0.64315165  0.07120078    -0.12400
H2175       H  0.59000335  0.60340040  0.04806985     0.12200
C2176       C  0.55971599  0.56079692  0.13549442    -0.23200
H2177       H  0.59341947  0.59962553  0.15769968     0.07900
C2178       C  0.61383607  0.65852219  0.15473762     0.04200
C2179       C  0.63232995  0.67523947  0.17114559    -0.20500
C2180       C  0.66305514  0.67292994  0.16949520    -0.12800
C2181       C  0.67549943  0.65276681  0.15161586     0.12900
C2182       C  0.65691247  0.63576649  0.13569106    -0.23200
C2183       C  0.58107163  0.66252728  0.15612826    -0.06300
H2184       H  0.62271629  0.69065597  0.18472474     0.14400
C2185       C  0.70821519  0.64857822  0.14967542    -0.16400
H2186       H  0.66628231  0.62011220  0.12215304     0.08800
H2187       H  0.53563833  0.56267243  0.13216242     0.06600
H2188       H  0.56393235  0.56253549  0.15958480     0.07800
H2189       H  0.56725063  0.54089401  0.12826216     0.06900
H2190       H  0.64649144  0.64173503  0.07499093     0.01700
H2191       H  0.61454427  0.66276377  0.07887217     0.02200
H2192       H  0.61858911  0.64171429  0.04696136     0.05700
H2193       H  0.57507097  0.67949402  0.17054634     0.04700
H2194       H  0.57032085  0.64460272  0.16516032    -0.01100
H2195       H  0.57242410  0.66646780  0.13358008     0.00400
H2196       H  0.71380902  0.63081361  0.13621678     0.04100
H2197       H  0.71745718  0.64571795  0.17215872     0.06000
H2198       H  0.71875490  0.66581538  0.13899010     0.06900
C2199       C  0.60110140  0.59818396  0.36947365    -0.22700
C2200       C  0.61567113  0.61819955  0.38500250     0.09200
C2201       C  0.61352817  0.61944210  0.41607614     0.09600
C2202       C  0.59679005  0.60041721  0.43101446    -0.17600
C2203       C  0.58209091  0.58021781  0.41558389    -0.28100
C2204       C  0.58487194  0.57875698  0.38429513     0.18000
C2205       C  0.63310108  0.63763334  0.36813591     0.11900
C2206       C  0.62870293  0.64096058  0.43337739    -0.12400
H2207       H  0.59493892  0.60147505  0.45490703     0.12200
C2208       C  0.57279701  0.55648714  0.36563030    -0.23200
H2209       H  0.60317273  0.59726931  0.34558751     0.07900
C2210       C  0.66315141  0.63354535  0.36213027     0.04200
C2211       C  0.67871526  0.65270189  0.34613541    -0.20500
C2212       C  0.66476220  0.67559903  0.33568081    -0.12800
C2213       C  0.63458991  0.67974434  0.34203295     0.12900
C2214       C  0.61913106  0.66047981  0.35788850    -0.23200
C2215       C  0.67863216  0.60885557  0.37230279    -0.06300
H2216       H  0.70177539  0.64958969  0.34131926     0.14400
C2217       C  0.61809367  0.70456122  0.33386650    -0.16400
H2218       H  0.59606543  0.66352062  0.36280262     0.08800
H2219       H  0.59059344  0.54832429  0.35146954     0.06600
H2220       H  0.55507080  0.56413342  0.35111386     0.07800
H2221       H  0.56438214  0.53964043  0.37853556     0.06900
H2222       H  0.62041529  0.66058238  0.42618785     0.01700
H2223       H  0.65274324  0.64000428  0.42954473     0.02200
H2224       H  0.62473522  0.63907147  0.45751146     0.05700
H2225       H  0.70211568  0.60876427  0.36568550     0.04700
H2226       H  0.66794095  0.59121423  0.36236404    -0.01100
H2227       H  0.67756100  0.60738628  0.39676253     0.00400
H2228       H  0.60029501  0.69959953  0.31802145     0.04100
H2229       H  0.63207666  0.72008023  0.32406770     0.06000
H2230       H  0.60810963  0.71329427  0.35408588     0.06900
C2231       C  0.63396791  0.90547402  0.09875526    -0.22700
C2232       C  0.61921914  0.88675035  0.11594616     0.09200
C2233       C  0.58827726  0.88636967  0.11625638     0.09600
C2234       C  0.57268941  0.90495998  0.09941686    -0.17600
C2235       C  0.58732232  0.92377124  0.08201772    -0.28100
C2236       C  0.61850472  0.92396388  0.08166021     0.18000
C2237       C  0.63675638  0.86783038  0.13358252     0.11900
C2238       C  0.57175692  0.86616778  0.13410591    -0.12400
H2239       H  0.54890196  0.90469175  0.09971980     0.12200
C2240       C  0.63583780  0.94398309  0.06426316    -0.23200
H2241       H  0.65775250  0.90562849  0.09886078     0.07900
C2242       C  0.65095147  0.84607922  0.12021882     0.04200
C2243       C  0.66772387  0.82894711  0.13776386    -0.20500
C2244       C  0.67037361  0.83285573  0.16843081    -0.12800
C2245       C  0.65643454  0.85497199  0.18171915     0.12900
C2246       C  0.63967190  0.87207523  0.16408165    -0.23200
C2247       C  0.64777549  0.84058026  0.08759750    -0.06300
H2248       H  0.67820816  0.81194814  0.12754562     0.14400
C2249       C  0.65942778  0.86182135  0.21402479    -0.16400
H2250       H  0.62904583  0.88907731  0.17413372     0.08800
H2251       H  0.65983123  0.94190107  0.06799278     0.06600
H2252       H  0.62942890  0.96430612  0.07107436     0.07800
H2253       H  0.63187320  0.94120690  0.04022933     0.06900
H2254       H  0.57703105  0.86852969  0.15793532     0.01700
H2255       H  0.57805750  0.84595666  0.12678158     0.02200
H2256       H  0.54763274  0.86830434  0.13144151     0.05700
H2257       H  0.65977678  0.82239718  0.08086326     0.04700
H2258       H  0.65670976  0.85735325  0.07465510    -0.01100
H2259       H  0.62422347  0.83787639  0.08204407     0.00400
H2260       H  0.66760318  0.88241041  0.21632990     0.04100
H2261       H  0.67513417  0.84899293  0.22587100     0.06000
H2262       H  0.63762066  0.86038454  0.22486766     0.06900
C2263       C  0.91049402  0.61525309  0.11489958    -0.22700
C2264       C  0.87989752  0.61268809  0.11499892     0.09200
C2265       C  0.86646043  0.59301857  0.09752314     0.09600
C2266       C  0.88409693  0.57584139  0.08076590    -0.17600
C2267       C  0.91486309  0.57799440  0.08097254    -0.28100
C2268       C  0.92821119  0.59847800  0.09772719     0.18000
C2269       C  0.86235648  0.63183107  0.13236782     0.11900
C2270       C  0.83356487  0.59008348  0.09676975    -0.12400
H2271       H  0.87378952  0.56027484  0.06791954     0.12200
C2272       C  0.96070174  0.60422065  0.09714628    -0.23200
H2273       H  0.92057556  0.63090484  0.12782425     0.07900
C2274       C  0.85631207  0.62789628  0.16262724     0.04200
C2275       C  0.84037452  0.64719928  0.17826223    -0.20500
C2276       C  0.83052357  0.67031579  0.16426970    -0.12800
C2277       C  0.83742027  0.67451899  0.13406148     0.12900
C2278       C  0.85279029  0.65494375  0.11842006    -0.23200
C2279       C  0.86674178  0.60339283  0.17831102    -0.06300
H2280       H  0.83544967  0.64419799  0.20146825     0.14400
C2281       C  0.83060728  0.69983657  0.11787765    -0.16400
H2282       H  0.85812072  0.65805703  0.09531753     0.08800
H2283       H  0.97024972  0.60061541  0.11937327     0.06600
H2284       H  0.96418799  0.62530365  0.09126736     0.07800
H2285       H  0.97290196  0.59242513  0.08058225     0.06900
H2286       H  0.82339986  0.60860891  0.08851675     0.01700
H2287       H  0.82523414  0.58595192  0.11936605     0.02200
H2288       H  0.82663428  0.57363319  0.08200953     0.05700
H2289       H  0.86009362  0.60338156  0.20195064     0.04700
H2290       H  0.89106196  0.60222600  0.17730104    -0.01100
H2291       H  0.85726170  0.58558401  0.16753776     0.00400
H2292       H  0.85121412  0.70806162  0.10856244     0.04100
H2293       H  0.82104004  0.71541716  0.13214486     0.06000
H2294       H  0.81517446  0.69568056  0.09942690     0.06900
C2295       C  0.89294539  0.87855604  0.40912948    -0.22700
C2296       C  0.88920024  0.88370990  0.37895612     0.09200
C2297       C  0.90302691  0.90579234  0.36611040     0.09600
C2298       C  0.92024396  0.92242557  0.38392729    -0.17600
C2299       C  0.92348366  0.91770874  0.41436484    -0.28100
C2300       C  0.91015336  0.89513157  0.42699948     0.18000
C2301       C  0.87096413  0.86547016  0.36116508     0.11900
C2302       C  0.89899569  0.91212758  0.33381080    -0.12400
H2303       H  0.93038747  0.93973347  0.37422930     0.12200
C2304       C  0.91424937  0.88734931  0.45885197    -0.23200
H2305       H  0.88258790  0.86129315  0.41873286     0.07900
C2306       C  0.88357777  0.84394641  0.34591191     0.04200
C2307       C  0.86546663  0.82714265  0.32931384    -0.20500
C2308       C  0.83492515  0.83092933  0.32823601    -0.12800
C2309       C  0.82231963  0.85277693  0.34334367     0.12900
C2310       C  0.84058377  0.86967354  0.35979013    -0.23200
C2311       C  0.91601409  0.83828845  0.34785919    -0.06300
H2312       H  0.87514217  0.81034884  0.31794550     0.14400
C2313       C  0.79008899  0.85951535  0.34195730    -0.16400
H2314       H  0.83110148  0.88639791  0.37146420     0.08800
H2315       H  0.92292177  0.86683921  0.45993992     0.06600
H2316       H  0.89273383  0.88809181  0.47034617     0.07800
H2317       H  0.93001975  0.90010722  0.47081961     0.06900
H2318       H  0.87534732  0.91536273  0.32908169     0.01700
H2319       H  0.90713924  0.89553372  0.31994159     0.02200
H2320       H  0.91114475  0.93025493  0.32739736     0.05700
H2321       H  0.92221656  0.82049632  0.33478782     0.04700
H2322       H  0.92222497  0.83477572  0.37127240    -0.01100
H2323       H  0.92873102  0.85530487  0.33928369     0.00400
H2324       H  0.78030537  0.85783052  0.36436394     0.04100
H2325       H  0.77757073  0.84679141  0.32651173     0.06000
H2326       H  0.78741530  0.88018267  0.33415688     0.06900
C2327       C  0.88471246  0.61769807  0.41561859    -0.22700
C2328       C  0.88207316  0.61416932  0.38495465     0.09200
C2329       C  0.89661576  0.59283862  0.37106403     0.09600
C2330       C  0.91365164  0.57560007  0.38818550    -0.17600
C2331       C  0.91616181  0.57890493  0.41892756    -0.28100
C2332       C  0.90162162  0.60037396  0.43286617     0.18000
C2333       C  0.86493763  0.63360492  0.36758123     0.11900
C2334       C  0.89358105  0.58785051  0.33830874    -0.12400
H2335       H  0.92457198  0.55904416  0.37756140     0.12200
C2336       C  0.90423891  0.60638520  0.46546376    -0.23200
H2337       H  0.87387966  0.63437740  0.42609474     0.07900
C2338       C  0.83399872  0.63448198  0.36859900     0.04200
C2339       C  0.81894794  0.65318744  0.35139469    -0.20500
C2340       C  0.83409481  0.67072534  0.33281427    -0.12800
C2341       C  0.86523215  0.66975609  0.33189239     0.12900
C2342       C  0.88016313  0.65134212  0.34951260    -0.23200
C2343       C  0.81686595  0.61538923  0.38737289    -0.06300
H2344       H  0.79520921  0.65391291  0.35220462     0.14400
C2345       C  0.88312021  0.68842126  0.31322241    -0.16400
H2346       H  0.90392446  0.65064409  0.34916189     0.08800
H2347       H  0.88232647  0.60469558  0.47604735     0.06600
H2348       H  0.91237071  0.62691356  0.46847991     0.07800
H2349       H  0.91974872  0.59323815  0.47719342     0.06900
H2350       H  0.90267989  0.60472436  0.32567293     0.01700
H2351       H  0.87004488  0.58530007  0.33258438     0.02200
H2352       H  0.90552992  0.56972461  0.33128927     0.05700
H2353       H  0.79281884  0.61829424  0.38492726     0.04700
H2354       H  0.82251036  0.61823240  0.41105415    -0.01100
H2355       H  0.82218964  0.59478110  0.38069855     0.00400
H2356       H  0.90706566  0.68563923  0.31667666     0.04100
H2357       H  0.87770574  0.70920665  0.31907533     0.06000
H2358       H  0.87863820  0.68481403  0.28941654     0.06900
C2359       C  0.64476003  0.87339086  0.34088138    -0.22700
C2360       C  0.63974217  0.86783478  0.37078645     0.09200
C2361       C  0.65202629  0.84492630  0.38348761     0.09600
C2362       C  0.66877759  0.82778771  0.36575262    -0.17600
C2363       C  0.67330982  0.83298614  0.33558756    -0.28100
C2364       C  0.66166476  0.85640299  0.32314769     0.18000
C2365       C  0.62180401  0.88651309  0.38843041     0.11900
C2366       C  0.64733024  0.83857455  0.41567166    -0.12400
H2367       H  0.67776303  0.80989800  0.37531030     0.12200
C2368       C  0.66740114  0.86465576  0.29171052    -0.23200
H2369       H  0.63566537  0.89128540  0.33140196     0.07900
C2370       C  0.63426765  0.90933370  0.40122232     0.04200
C2371       C  0.61632621  0.92669101  0.41738868    -0.20500
C2372       C  0.58612763  0.92195189  0.42069115    -0.12800
C2373       C  0.57376294  0.89871958  0.40831217     0.12900
C2374       C  0.59181260  0.88138405  0.39216163    -0.23200
C2375       C  0.66643389  0.91541831  0.39759998    -0.06300
H2376       H  0.62581423  0.94446198  0.42687761     0.14400
C2377       C  0.54207314  0.89098139  0.41244745    -0.16400
H2378       H  0.58246668  0.86360519  0.38253533     0.08800
H2379       H  0.67753086  0.88461765  0.29156951     0.06600
H2380       H  0.64630807  0.86547008  0.27946336     0.07800
H2381       H  0.68261837  0.85121228  0.27989319     0.06900
H2382       H  0.62351234  0.83622258  0.42014668     0.01700
H2383       H  0.65610469  0.85484249  0.42964126     0.02200
H2384       H  0.65859274  0.81996411  0.42209921     0.05700
H2385       H  0.67266097  0.93399330  0.40917990     0.04700
H2386       H  0.67171498  0.91772026  0.37377617    -0.01100
H2387       H  0.67979558  0.89905086  0.40688765     0.00400
H2388       H  0.53091778  0.89034143  0.39061531     0.04100
H2389       H  0.52977869  0.90456510  0.42717411     0.06000
H2390       H  0.54099398  0.87103046  0.42257313     0.06900
C2391       C  0.88440101  0.88065076  0.08481066    -0.22700
C2392       C  0.88695998  0.88083579  0.11563644     0.09200
C2393       C  0.90646945  0.89854263  0.12951071     0.09600
C2394       C  0.92263383  0.91623786  0.11211270    -0.17600
C2395       C  0.91957654  0.91671793  0.08115089    -0.28100
C2396       C  0.90042686  0.89836587  0.06732019     0.18000
C2397       C  0.86893998  0.86217072  0.13288694     0.11900
C2398       C  0.90986411  0.89894505  0.16266030    -0.12400
H2399       H  0.93727386  0.93016674  0.12287895     0.12200
C2400       C  0.89734221  0.89662831  0.03421891    -0.23200
H2401       H  0.86960055  0.86661741  0.07444539     0.07900
C2402       C  0.83953166  0.86796217  0.14024789     0.04200
C2403       C  0.82308039  0.84933040  0.15610117    -0.18900
C2404       C  0.83551207  0.82516426  0.16468886    -0.12800
C2405       C  0.86482532  0.81912956  0.15657970     0.12900
C2406       C  0.88127442  0.83793424  0.14109706    -0.23200
C2407       C  0.82570489  0.89386383  0.13154691    -0.06300
H2408       H  0.80058726  0.85376207  0.16217002     0.14400
C2409       C  0.87915111  0.79275400  0.16253388    -0.16400
H2410       H  0.90369709  0.83346667  0.13483420     0.08800
H2411       H  0.88717731  0.91494920  0.02546769     0.06600
H2412       H  0.88315159  0.87983616  0.02740501     0.07800
H2413       H  0.91930577  0.89357575  0.02413616     0.06900
H2414       H  0.91770392  0.87936963  0.17042769     0.01700
H2415       H  0.88840835  0.90344979  0.17318053     0.02200
H2416       H  0.92593065  0.91413533  0.16997820     0.05700
H2417       H  0.80263246  0.89536505  0.13933187     0.04700
H2418       H  0.82574343  0.89579324  0.10708865    -0.01100
H2419       H  0.83830928  0.91049016  0.14137432     0.00400
H2420       H  0.88714255  0.78416053  0.14136203     0.04100
H2421       H  0.86414785  0.77804048  0.17237697     0.06000
H2422       H  0.89817090  0.79555411  0.17759605     0.06900
N2423       N  0.96769093  0.96882130  0.94343231    -0.06400
N2424       N  0.96343891  0.95057195  0.92293389    -0.58500
N2425       N  0.94378558  0.52831433  0.96488667    -0.06100
N2426       N  0.92352546  0.54645996  0.95991373    -0.60600
N2427       N  0.96439004  0.52934938  0.94452874    -0.05700
N2428       N  0.95853261  0.54816850  0.92524658    -0.58500
N2429       N  0.94704506  0.96761341  0.96372767    -0.05300
N2430       N  0.92838978  0.94841959  0.95750644    -0.61000
C2431       C  0.93913899  0.93771302  0.93224336     0.95800
C2432       C  0.93323222  0.55893737  0.93536719     0.95600
N2433       N  0.96288077  0.52786404  0.55554768    -0.06600
N2434       N  0.95684368  0.54642940  0.57520776    -0.59100
N2435       N  0.94599336  0.96688407  0.53358620    -0.04700
N2436       N  0.92659165  0.94814993  0.53891281    -0.60300
N2437       N  0.96610627  0.96738550  0.55446622    -0.06600
N2438       N  0.96065129  0.94906032  0.57446430    -0.59300
N2439       N  0.94282149  0.52744312  0.53462713    -0.04300
N2440       N  0.92269781  0.54573154  0.53964715    -0.60400
Mn2441     Mn  0.94406839  0.99750832  0.49917338     1.18400
C2442       C  0.93196225  0.55768783  0.56481248     0.97900
C2443       C  0.93611769  0.93695586  0.56430198     0.98500
N2444       N  0.53363063  0.53229593  0.94496353    -0.06600
N2445       N  0.53957516  0.54955035  0.92395841    -0.62900
N2446       N  0.55719657  0.97289194  0.96565160    -0.05400
N2447       N  0.57766312  0.95485836  0.96101148    -0.63600
N2448       N  0.53697602  0.97168102  0.94489376    -0.06100
N2449       N  0.54325820  0.95271982  0.92572993    -0.63200
N2450       N  0.55374473  0.53328566  0.96582806    -0.05000
N2451       N  0.57386163  0.55111295  0.95930357    -0.63900
Mn2452     Mn  0.50064683  0.50054377  0.94364842     1.10700
C2453       C  0.56481310  0.56103742  0.93307608     0.99100
C2454       C  0.56849172  0.94217773  0.93630271     0.99200
N2455       N  0.53593324  0.97073010  0.55534129    -0.06100
N2456       N  0.54299511  0.95256274  0.57506283    -0.61500
N2457       N  0.55215450  0.53307939  0.53627444    -0.05500
N2458       N  0.57052030  0.55240374  0.54300457    -0.58200
N2459       N  0.53160239  0.53118669  0.55660443    -0.06800
N2460       N  0.53553331  0.54911862  0.57745927    -0.61100
N2461       N  0.55662774  0.97261564  0.53517231    -0.05700
N2462       N  0.57808697  0.95582794  0.54073498    -0.58300
Mn2463     Mn  0.49911896  0.49913139  0.55627874     1.20200
Mn2464     Mn  0.55566871  0.50315166  0.50075118     1.10100
Cl2465     Cl  0.49987668  0.50006564  0.49996115    -0.86200
C2466       C  0.56938930  0.94341268  0.56565423     0.96100
C2467       C  0.55984140  0.56225213  0.56877864     0.95900
N2468       N  0.78504624  0.77934540  0.69378181    -0.06400
N2469       N  0.79154681  0.79684877  0.67317038    -0.58500
N2470       N  0.80376240  0.71834801  0.71426634    -0.06100
N2471       N  0.82367561  0.70027225  0.70763670    -0.60600
N2472       N  0.78302093  0.71887996  0.69398926    -0.05700
N2473       N  0.78846054  0.70122233  0.67310790    -0.58500
N2474       N  0.80572864  0.77871749  0.71408401    -0.05300
N2475       N  0.82673146  0.79569059  0.70774803    -0.61000
C2476       C  0.81757517  0.80684531  0.68225275     0.95800
C2477       C  0.81383124  0.68976741  0.68194858     0.95600
N2478       N  0.78529496  0.71940938  0.80527034    -0.06600
N2479       N  0.79168948  0.70168507  0.82571394    -0.59100
N2480       N  0.80671253  0.77951811  0.78362467    -0.04700
N2481       N  0.82651861  0.79817717  0.78777879    -0.60300
N2482       N  0.78687345  0.78021234  0.80475109    -0.06600
N2483       N  0.79275668  0.79943739  0.82368994    -0.59300
N2484       N  0.80520790  0.71899743  0.78420093    -0.04300
N2485       N  0.82548505  0.70109592  0.78989262    -0.60400
Mn2486     Mn  0.80602109  0.74882344  0.74909183     1.18400
C2487       C  0.81684077  0.69038469  0.81580434     0.97900
C2488       C  0.81732862  0.81071232  0.81259393     0.98500
N2489       N  0.71337247  0.72097510  0.69570239    -0.06600
N2490       N  0.70669860  0.70261860  0.67599399    -0.62900
N2491       N  0.69589817  0.78266987  0.71628051    -0.05400
N2492       N  0.67685888  0.80179547  0.71098946    -0.63600
N2493       N  0.71580413  0.78161538  0.69522716    -0.06100
N2494       N  0.71071302  0.79999504  0.67520602    -0.63200
N2495       N  0.69317770  0.72207333  0.71648259    -0.05000
N2496       N  0.67233129  0.70454624  0.71122121    -0.63900
Mn2497     Mn  0.74922787  0.75015169  0.69390755     1.10700
C2498       C  0.68120008  0.69231208  0.68606378     0.99100
C2499       C  0.68663924  0.81271338  0.68553463     0.99200
N2500       N  0.71791153  0.78199287  0.80672981    -0.06100
N2501       N  0.71344858  0.80024484  0.82718465    -0.61500
N2502       N  0.69451151  0.72254346  0.78641473    -0.05500
N2503       N  0.67329038  0.70579323  0.79286265    -0.58200
N2504       N  0.71534530  0.72158014  0.80658554    -0.06800
N2505       N  0.70865215  0.70413860  0.82720137    -0.61100
N2506       N  0.69730853  0.78306049  0.78635900    -0.05700
N2507       N  0.67845474  0.80217487  0.79250905    -0.58300
Mn2508     Mn  0.75140650  0.75065773  0.80666101     1.20200
Mn2509     Mn  0.69444969  0.75264738  0.75137267     1.10100
Cl2510     Cl  0.75026123  0.75049308  0.75025689    -0.86200
C2511       C  0.68905013  0.81294455  0.81780689     0.96100
C2512       C  0.68234483  0.69453308  0.81836182     0.95900
C2513       C  0.59221320  0.60057859  0.63376921    -0.22700
C2514       C  0.60792679  0.62030513  0.61900194     0.09200
C2515       C  0.60680808  0.62160894  0.58782257     0.09600
C2516       C  0.59054904  0.60263948  0.57208338    -0.17600
C2517       C  0.57495015  0.58268260  0.58677985    -0.28100
C2518       C  0.57551747  0.58186165  0.61815888     0.18000
C2519       C  0.62633015  0.63868154  0.63667191     0.11900
C2520       C  0.62250729  0.64315167  0.57120069    -0.12400
H2521       H  0.59000339  0.60340037  0.54807104     0.12200
C2522       C  0.55971604  0.56079705  0.63549440    -0.23200
H2523       H  0.59341958  0.59962551  0.65770088     0.07900
C2524       C  0.61383613  0.65852224  0.65473754     0.04200
C2525       C  0.63233003  0.67523949  0.67114549    -0.20500
C2526       C  0.66305521  0.67292994  0.66949514    -0.12800
C2527       C  0.67549946  0.65276683  0.65161583     0.12900
C2528       C  0.65691242  0.63576663  0.63569112    -0.23200
C2529       C  0.58107164  0.66252717  0.65612835    -0.06300
H2530       H  0.62271624  0.69065624  0.68472482     0.14400
C2531       C  0.70821523  0.64857835  0.64967542    -0.16400
H2532       H  0.66628264  0.62011172  0.62215258     0.08800
H2533       H  0.53563827  0.56267253  0.63216241     0.06600
H2534       H  0.56393239  0.56253556  0.65958494     0.07800
H2535       H  0.56725068  0.54089393  0.62826215     0.06900
H2536       H  0.64649195  0.64173498  0.57499095     0.01700
H2537       H  0.61454442  0.66276372  0.57887215     0.02200
H2538       H  0.61858917  0.64171434  0.54696158     0.05700
H2539       H  0.57507100  0.67949417  0.67054628     0.04700
H2540       H  0.57032117  0.64460323  0.66516004    -0.01100
H2541       H  0.57242398  0.66646791  0.63357959     0.00400
H2542       H  0.71380912  0.63081330  0.63621653     0.04100
H2543       H  0.71745719  0.64571790  0.67215869     0.06000
H2544       H  0.71875483  0.66581512  0.63899023     0.06900
C2545       C  0.60110145  0.59818392  0.86947334    -0.22700
C2546       C  0.61567120  0.61819953  0.88500246     0.09200
C2547       C  0.61352818  0.61944210  0.91607616     0.09600
C2548       C  0.59679001  0.60041724  0.93101462    -0.17600
C2549       C  0.58209087  0.58021782  0.91558392    -0.28100
C2550       C  0.58487190  0.57875698  0.88429512     0.18000
C2551       C  0.63310109  0.63763331  0.86813588     0.11900
C2552       C  0.62870300  0.64096062  0.93337715    -0.12400
H2553       H  0.59493893  0.60147507  0.95490617     0.12200
C2554       C  0.57279707  0.55648710  0.86563030    -0.23200
H2555       H  0.60317264  0.59726933  0.84558878     0.07900
C2556       C  0.66315146  0.63354537  0.86213026     0.04200
C2557       C  0.67871538  0.65270193  0.84613541    -0.20500
C2558       C  0.66476221  0.67559906  0.83568083    -0.12800
C2559       C  0.63458990  0.67974432  0.84203291     0.12900
C2560       C  0.61913108  0.66047977  0.85788844    -0.23200
C2561       C  0.67863214  0.60885552  0.87230272    -0.06300
H2562       H  0.70177510  0.64958984  0.84131941     0.14400
C2563       C  0.61809354  0.70456121  0.83386663    -0.16400
H2564       H  0.59606538  0.66352054  0.86280256     0.08800
H2565       H  0.59059299  0.54832446  0.85146974     0.06600
H2566       H  0.55507045  0.56413349  0.85111380     0.07800
H2567       H  0.56438209  0.53964035  0.87853568     0.06900
H2568       H  0.62041543  0.66058213  0.92618790     0.01700
H2569       H  0.65274304  0.64000423  0.92954474     0.02200
H2570       H  0.62473514  0.63907140  0.95751199     0.05700
H2571       H  0.70211601  0.60876435  0.86568546     0.04700
H2572       H  0.66794125  0.59121452  0.86236412    -0.01100
H2573       H  0.67756105  0.60738628  0.89676258     0.00400
H2574       H  0.60029497  0.69959946  0.81802119     0.04100
H2575       H  0.63207685  0.72008042  0.82406757     0.06000
H2576       H  0.60810974  0.71329399  0.85408528     0.06900
C2577       C  0.63396818  0.90547405  0.59875531    -0.22700
C2578       C  0.61921913  0.88675033  0.61594617     0.09200
C2579       C  0.58827720  0.88636970  0.61625635     0.09600
C2580       C  0.57268921  0.90495999  0.59941681    -0.17600
C2581       C  0.58732234  0.92377126  0.58201767    -0.28100
C2582       C  0.61850478  0.92396393  0.58166026     0.18000
C2583       C  0.63675632  0.86783035  0.63358252     0.11900
C2584       C  0.57175696  0.86616781  0.63410598    -0.12400
H2585       H  0.54890293  0.90469177  0.59971966     0.12200
C2586       C  0.63583786  0.94398299  0.56426303    -0.23200
H2587       H  0.65775135  0.90562853  0.59886091     0.07900
C2588       C  0.65095144  0.84607918  0.62021882     0.04200
C2589       C  0.66772379  0.82894707  0.63776389    -0.20500
C2590       C  0.67037356  0.83285568  0.66843080    -0.12800
C2591       C  0.65643451  0.85497194  0.68171917     0.12900
C2592       C  0.63967177  0.87207525  0.66408171    -0.23200
C2593       C  0.64777525  0.84058035  0.58759754    -0.06300
H2594       H  0.67820808  0.81194804  0.62754561     0.14400
C2595       C  0.65942757  0.86182117  0.71402485    -0.16400
H2596       H  0.62904597  0.88907693  0.67413355     0.08800
H2597       H  0.65983129  0.94190117  0.56799294     0.06600
H2598       H  0.62942875  0.96430674  0.57107466     0.07800
H2599       H  0.63187339  0.94120707  0.54023010     0.06900
H2600       H  0.57703084  0.86852969  0.65793484     0.01700
H2601       H  0.57805746  0.84595673  0.62678150     0.02200
H2602       H  0.54763240  0.86830440  0.63144136     0.05700
H2603       H  0.65977704  0.82239673  0.58086313     0.04700
H2604       H  0.65670984  0.85735326  0.57465513    -0.01100
H2605       H  0.62422402  0.83787648  0.58204420     0.00400
H2606       H  0.66760356  0.88241102  0.71632990     0.04100
H2607       H  0.67513439  0.84899288  0.72587102     0.06000
H2608       H  0.63762151  0.86038464  0.72486741     0.06900
C2609       C  0.91049398  0.61525310  0.61489951    -0.22700
C2610       C  0.87989749  0.61268811  0.61499889     0.09200
C2611       C  0.86646041  0.59301857  0.59752313     0.09600
C2612       C  0.88409696  0.57584143  0.58076595    -0.17600
C2613       C  0.91486311  0.57799442  0.58097253    -0.28100
C2614       C  0.92821117  0.59847806  0.59772716     0.18000
C2615       C  0.86235645  0.63183107  0.63236784     0.11900
C2616       C  0.83356492  0.59008344  0.59676979    -0.12400
H2617       H  0.87378940  0.56027462  0.56791941     0.12200
C2618       C  0.96070177  0.60422051  0.59714632    -0.23200
H2619       H  0.92057562  0.63090508  0.62782430     0.07900
C2620       C  0.85631208  0.62789633  0.66262728     0.04200
C2621       C  0.84037462  0.64719933  0.67826203    -0.20500
C2622       C  0.83052354  0.67031579  0.66426974    -0.12800
C2623       C  0.83742020  0.67451898  0.63406156     0.12900
C2624       C  0.85279022  0.65494378  0.61842001    -0.23200
C2625       C  0.86674190  0.60339281  0.67831087    -0.06300
H2626       H  0.83544958  0.64419792  0.70146923     0.14400
C2627       C  0.83060736  0.69983650  0.61787743    -0.16400
H2628       H  0.85812056  0.65805701  0.59531772     0.08800
H2629       H  0.97024956  0.60061559  0.61937297     0.06600
H2630       H  0.96418804  0.62530435  0.59126716     0.07800
H2631       H  0.97290178  0.59242541  0.58058247     0.06900
H2632       H  0.82339972  0.60860919  0.58851647     0.01700
H2633       H  0.82523411  0.58595202  0.61936578     0.02200
H2634       H  0.82663422  0.57363309  0.58200937     0.05700
H2635       H  0.86009358  0.60338167  0.70195122     0.04700
H2636       H  0.89106189  0.60222611  0.67730108    -0.01100
H2637       H  0.85726194  0.58558435  0.66753804     0.00400
H2638       H  0.85121352  0.70806141  0.60856270     0.04100
H2639       H  0.82103970  0.71541765  0.63214541     0.06000
H2640       H  0.81517453  0.69568063  0.59942726     0.06900
C2641       C  0.89294551  0.87855610  0.90912940    -0.22700
C2642       C  0.88920024  0.88370991  0.87895609     0.09200
C2643       C  0.90302684  0.90579239  0.86611039     0.09600
C2644       C  0.92024386  0.92242565  0.88392726    -0.17600
C2645       C  0.92348362  0.91770876  0.91436482    -0.28100
C2646       C  0.91015340  0.89513157  0.92699942     0.18000
C2647       C  0.87096416  0.86547015  0.86116505     0.11900
C2648       C  0.89899560  0.91212773  0.83381076    -0.12400
H2649       H  0.93038729  0.93973358  0.87422931     0.12200
C2650       C  0.91424936  0.88734936  0.95885200    -0.23200
H2651       H  0.88258787  0.86129275  0.91873297     0.07900
C2652       C  0.88357780  0.84394640  0.84591187     0.04200
C2653       C  0.86546657  0.82714278  0.82931390    -0.20500
C2654       C  0.83492516  0.83092935  0.82823597    -0.12800
C2655       C  0.82231967  0.85277697  0.84334361     0.12900
C2656       C  0.84058376  0.86967365  0.85979014    -0.23200
C2657       C  0.91601414  0.83828845  0.84785912    -0.06300
H2658       H  0.87514245  0.81034835  0.81794515     0.14400
C2659       C  0.79008901  0.85951543  0.84195728    -0.16400
H2660       H  0.83110169  0.88639768  0.87146391     0.08800
H2661       H  0.92292194  0.86683903  0.95993986     0.06600
H2662       H  0.89273416  0.88809177  0.97034597     0.07800
H2663       H  0.93001974  0.90010716  0.97081953     0.06900
H2664       H  0.87534713  0.91536277  0.82908171     0.01700
H2665       H  0.90713912  0.89553370  0.81994148     0.02200
H2666       H  0.91114442  0.93025477  0.82739740     0.05700
H2667       H  0.92221659  0.82049640  0.83478780     0.04700
H2668       H  0.92222502  0.83477575  0.87127234    -0.01100
H2669       H  0.92873104  0.85530492  0.83928364     0.00400
H2670       H  0.78030543  0.85783064  0.86436371     0.04100
H2671       H  0.77757074  0.84679149  0.82651161     0.06000
H2672       H  0.78741537  0.88018282  0.83415678     0.06900
C2673       C  0.88471235  0.61769825  0.91561866    -0.22700
C2674       C  0.88207309  0.61416932  0.88495463     0.09200
C2675       C  0.89661572  0.59283860  0.87106398     0.09600
C2676       C  0.91365173  0.57559993  0.88818538    -0.17600
C2677       C  0.91616187  0.57890494  0.91892753    -0.28100
C2678       C  0.90162166  0.60037404  0.93286615     0.18000
C2679       C  0.86493765  0.63360489  0.86758120     0.11900
C2680       C  0.89358111  0.58785042  0.83830876    -0.12400
H2681       H  0.92457154  0.55904482  0.87756180     0.12200
C2682       C  0.90423890  0.60638515  0.96546374    -0.23200
H2683       H  0.87388013  0.63437672  0.92609425     0.07900
C2684       C  0.83399871  0.63448200  0.86859897     0.04200
C2685       C  0.81894771  0.65318749  0.85139468    -0.20500
C2686       C  0.83409482  0.67072537  0.83281425    -0.12800
C2687       C  0.86523218  0.66975606  0.83189232     0.12900
C2688       C  0.88016307  0.65134208  0.84951252    -0.23200
C2689       C  0.81686593  0.61538930  0.88737290    -0.06300
H2690       H  0.79521023  0.65391294  0.85220457     0.14400
C2691       C  0.88312033  0.68842127  0.81322239    -0.16400
H2692       H  0.90392458  0.65064400  0.84916178     0.08800
H2693       H  0.88232688  0.60469569  0.97604717     0.06600
H2694       H  0.91237096  0.62691403  0.96847989     0.07800
H2695       H  0.91974877  0.59323830  0.97719330     0.06900
H2696       H  0.90267980  0.60472435  0.82567285     0.01700
H2697       H  0.87004437  0.58530000  0.83258432     0.02200
H2698       H  0.90552963  0.56972480  0.83128934     0.05700
H2699       H  0.79281869  0.61829436  0.88492719     0.04700
H2700       H  0.82251026  0.61823244  0.91105396    -0.01100
H2701       H  0.82218955  0.59478111  0.88069850     0.00400
H2702       H  0.90706536  0.68563915  0.81667645     0.04100
H2703       H  0.87770586  0.70920640  0.81907514     0.06000
H2704       H  0.87863810  0.68481392  0.78941611     0.06900
C2705       C  0.64476010  0.87339079  0.84088151    -0.22700
C2706       C  0.63974221  0.86783475  0.87078650     0.09200
C2707       C  0.65202621  0.84492625  0.88348761     0.09600
C2708       C  0.66877743  0.82778779  0.86575254    -0.17600
C2709       C  0.67330976  0.83298614  0.83558758    -0.28100
C2710       C  0.66166473  0.85640298  0.82314774     0.18000
C2711       C  0.62180398  0.88651309  0.88843047     0.11900
C2712       C  0.64733019  0.83857464  0.91567172    -0.12400
H2713       H  0.67776320  0.80989732  0.87531060     0.12200
C2714       C  0.66740119  0.86465571  0.79171053    -0.23200
H2715       H  0.63566518  0.89128592  0.83140178     0.07900
C2716       C  0.63426761  0.90933368  0.90122235     0.04200
C2717       C  0.61632622  0.92669102  0.91738883    -0.20500
C2718       C  0.58612758  0.92195179  0.92069124    -0.12800
C2719       C  0.57376294  0.89871952  0.90831221     0.12900
C2720       C  0.59181274  0.88138429  0.89216181    -0.23200
C2721       C  0.66643389  0.91541820  0.89760010    -0.06300
H2722       H  0.62581412  0.94446177  0.92687767     0.14400
C2723       C  0.54207299  0.89098149  0.91244747    -0.16400
H2724       H  0.58246610  0.86360408  0.88253474     0.08800
H2725       H  0.67753081  0.88461769  0.79156955     0.06600
H2726       H  0.64630777  0.86547009  0.77946327     0.07800
H2727       H  0.68261808  0.85121247  0.77989336     0.06900
H2728       H  0.62351201  0.83622245  0.92014670     0.01700
H2729       H  0.65610436  0.85484195  0.92964094     0.02200
H2730       H  0.65859278  0.81996370  0.92209928     0.05700
H2731       H  0.67266097  0.93399358  0.90917995     0.04700
H2732       H  0.67171496  0.91772040  0.87377571    -0.01100
H2733       H  0.67979528  0.89905138  0.90688734     0.00400
H2734       H  0.53091781  0.89034148  0.89061523     0.04100
H2735       H  0.52977892  0.90456474  0.92717377     0.06000
H2736       H  0.54099390  0.87103022  0.92257308     0.06900
C2737       C  0.88440096  0.88065067  0.58481056    -0.22700
C2738       C  0.88695998  0.88083579  0.61563643     0.09200
C2739       C  0.90646945  0.89854265  0.62951070     0.09600
C2740       C  0.92263384  0.91623786  0.61211270    -0.17600
C2741       C  0.91957658  0.91671796  0.58115088    -0.28100
C2742       C  0.90042691  0.89836588  0.56732019     0.18000
C2743       C  0.86894000  0.86217071  0.63288691     0.11900
C2744       C  0.90986403  0.89894507  0.66266031    -0.12400
H2745       H  0.93727386  0.93016670  0.62287893     0.12200
C2746       C  0.89734226  0.89662830  0.53421884    -0.23200
H2747       H  0.86960098  0.86661774  0.57444563     0.07900
C2748       C  0.83953165  0.86796213  0.64024789     0.04200
C2749       C  0.82308035  0.84933036  0.65610119    -0.18900
C2750       C  0.83551212  0.82516423  0.66468886    -0.12800
C2751       C  0.86482537  0.81912953  0.65657971     0.12900
C2752       C  0.88127440  0.83793424  0.64109706    -0.23200
C2753       C  0.82570503  0.89386382  0.63154687    -0.06300
H2754       H  0.80058750  0.85376195  0.66216996     0.14400
C2755       C  0.87915116  0.79275403  0.66253402    -0.16400
H2756       H  0.90369731  0.83346663  0.63483414     0.08800
H2757       H  0.88717734  0.91494925  0.52546770     0.06600
H2758       H  0.88315180  0.87983633  0.52740503     0.07800
H2759       H  0.91930576  0.89357584  0.52413617     0.06900
H2760       H  0.91770378  0.87936978  0.67042772     0.01700
H2761       H  0.88840811  0.90344982  0.67318047     0.02200
H2762       H  0.92593044  0.91413538  0.66997822     0.05700
H2763       H  0.80263194  0.89536503  0.63933208     0.04700
H2764       H  0.82574340  0.89579326  0.60708894    -0.01100
H2765       H  0.83830912  0.91048997  0.64137435     0.00400
H2766       H  0.88714274  0.78416042  0.64136195     0.04100
H2767       H  0.86414792  0.77804049  0.67237701     0.06000
H2768       H  0.89817084  0.79555413  0.67759610     0.06900
loop_ 
_geom_bond_atom_site_label_1 
_geom_bond_atom_site_label_2 
_geom_bond_distance 
_geom_bond_site_symmetry_2 
_ccdc_geom_bond_type 
N1            N2   1.320       .  A
N1            N7   1.315       .  A
N1        Mn2106   2.198       .  S
N2            C9   1.352       .  A
N3            N5   1.316       .  A
N3            N4   1.320       .  A
N3        Mn1057   2.201   1_545  S
N4           C10   1.353       .  A
N5            N6   1.320       .  A
N5        Mn1414   2.201       .  S
N6           C10   1.353       .  A
N7            N8   1.320       .  A
N7         Mn365   2.203       .  S
N8            C9   1.354       .  A
C9          C223   1.477       .  S
C10         C255   1.476       .  S
N11          N17   1.315       .  A
N11          N12   1.319       .  A
N11       Mn1425   2.198   1_545  S
N12          C20   1.353       .  A
N13          N14   1.319       .  A
N13          N15   1.315       .  A
N13         Mn19   2.200   1_554  S
N14          C21   1.352       .  A
N15          N16   1.320       .  A
N15       Mn2117   2.202       .  S
N16          C21   1.354       .  A
N17          N18   1.320       .  A
N17        Mn711   2.201   1_544  S
N18          C20   1.354       .  A
Mn19       N1041   2.201       .  S
Mn19        N353   2.203       .  S
Mn19        N709   2.201   1_556  S
Mn19      Cl2119   2.546       .  S
C20         C191   1.479       .  S
C21         C319   1.484       .  S
N22          N23   1.320       .  A
N22          N28   1.316       .  A
N22         Mn30   2.201       .  S
N23          C31   1.352       .  A
N24          N26   1.316       .  A
N24          N25   1.320       .  A
N24       Mn1080   2.202       .  S
N25          C32   1.352       .  A
N26          N27   1.321       .  A
N26        Mn722   2.206       .  S
N27          C32   1.354       .  A
N28          N29   1.320       .  A
N28        Mn388   2.199       .  S
N29          C31   1.353       .  A
Mn30       N2077   2.198   1_445  S
Mn30       N1389   2.201   1_455  S
Mn30        N718   2.206   1_545  S
Mn30       Cl389   2.546   1_455  S
C31         C127   1.481       .  S
C32         C296   1.477       .  S
N33          N34   1.322       .  A
N33          N39   1.315       .  A
N33        Mn733   2.207   1_455  S
N34          C44   1.356       .  A
N35          N36   1.322       .  A
N35          N37   1.316       .  A
N35         Mn42   2.208       .  S
N36          C45   1.356       .  A
N37          N38   1.318       .  A
N37         Mn41   2.196   1_445  S
N38          C45   1.351       .  A
N39          N40   1.319       .  A
N39        Mn734   2.196       .  S
N40          C44   1.351       .  A
Mn41       N1395   2.198   1_565  S
Mn41       N2091   2.202       .  S
Mn41        N725   2.207   1_655  S
Mn41        Cl43   2.546   1_564  S
Mn42       N1062   2.202   1_544  S
Mn42        N374   2.199   1_554  S
Mn42        N731   2.196   1_545  S
Mn42        Cl43   2.546   1_454  S
Cl43      Mn2095   2.546   1_545  S
Cl43       Mn376   2.546   1_655  S
C44         C159   1.484       .  S
C45          C95   1.483       .  S
N46          N47   1.321       .  A
N46          N52   1.315       .  A
N46         Mn75   2.202       .  S
N47          C54   1.353       .  A
N48          N50   1.316       .  A
N48          N49   1.321       .  A
N48         Mn64   2.202       .  S
N49          C55   1.352       .  A
N50          N51   1.320       .  A
N50         Mn75   2.205       .  S
N51          C55   1.353       .  A
N52          N53   1.318       .  A
N52         Mn64   2.192       .  S
N53          C54   1.350       .  A
C54         C328   1.471       .  S
C55         C200   1.476       .  S
N56          N62   1.315       .  A
N56          N57   1.322       .  A
N56         Mn86   2.208       .  S
N57          C65   1.355       .  A
N58          N59   1.319       .  A
N58          N60   1.315       .  A
N58         Mn64   2.198       .  S
N59          C66   1.353       .  A
N60          N61   1.321       .  A
N60         Mn86   2.204       .  S
N61          C66   1.354       .  A
N62          N63   1.318       .  A
N62         Mn64   2.193       .  S
N63          C65   1.351       .  A
Mn64        Cl88   2.542       .  S
C65         C264   1.483       .  S
C66         C232   1.478       .  S
N67          N68   1.320       .  A
N67          N73   1.316       .  A
N67         Mn75   2.204       .  S
N68          C76   1.353       .  A
N69          N71   1.315       .  A
N69          N70   1.321       .  A
N69         Mn87   2.200       .  S
N70          C77   1.354       .  A
N71          N72   1.320       .  A
N71         Mn75   2.201       .  S
N72          C77   1.353       .  A
N73          N74   1.321       .  A
N73         Mn87   2.206       .  S
N74          C76   1.354       .  A
Mn75        Cl88   2.547       .  S
C76         C104   1.484       .  S
C77         C168   1.479       .  S
N78          N79   1.320       .  A
N78          N84   1.316       .  A
N78         Mn86   2.198       .  S
N79          C89   1.352       .  A
N80          N81   1.319       .  A
N80          N82   1.317       .  A
N80         Mn87   2.200       .  S
N81          C90   1.351       .  A
N82          N83   1.321       .  A
N82         Mn86   2.206       .  S
N83          C90   1.353       .  A
N84          N85   1.321       .  A
N84         Mn87   2.206       .  S
N85          C89   1.354       .  A
Mn86        Cl88   2.550       .  S
Mn87        Cl88   2.545       .  S
C89         C287   1.476       .  S
C90         C136   1.476       .  S
C91          C92   1.400       .  A
C91          C96   1.403       .  A
C91         H101   1.084       .  S
C92          C97   1.484       .  S
C92          C93   1.412       .  A
C93          C94   1.404       .  A
C93          C98   1.507       .  S
C94          C95   1.404       .  A
C94          H99   1.086       .  S
C95          C96   1.419       .  A
C96         C100   1.508       .  S
C97         C102   1.411       .  A
C97         C106   1.401       .  A
C98         H114   1.108       .  S
C98         H115   1.110       .  S
C98         H116   1.112       .  S
C100        H111   1.111       .  S
C100        H112   1.109       .  S
C100        H113   1.111       .  S
C102        C103   1.404       .  A
C102        C107   1.507       .  S
C103        C104   1.406       .  A
C103        H108   1.083       .  S
C104        C105   1.417       .  A
C105        C106   1.404       .  A
C105        C109   1.507       .  S
C106        H110   1.086       .  S
C107        H117   1.110       .  S
C107        H118   1.110       .  S
C107        H119   1.111       .  S
C109        H120   1.113       .  S
C109        H121   1.110       .  S
C109        H122   1.108       .  S
C123        C124   1.398       .  A
C123        C128   1.402       .  A
C123        H133   1.085       .  S
C124        C129   1.478       .  S
C124        C125   1.409       .  A
C125        C126   1.403       .  A
C125        C130   1.506       .  S
C126        C127   1.405       .  A
C126        H131   1.084       .  S
C127        C128   1.422       .  A
C128        C132   1.509       .  S
C129        C134   1.410       .  A
C129        C138   1.398       .  A
C130        H146   1.111       .  S
C130        H147   1.110       .  S
C130        H148   1.110       .  S
C132        H143   1.111       .  S
C132        H144   1.110       .  S
C132        H145   1.103       .  S
C134        C135   1.404       .  A
C134        C139   1.506       .  S
C135        C136   1.403       .  A
C135        H140   1.084       .  S
C136        C137   1.419       .  A
C137        C138   1.402       .  A
C137        C141   1.509       .  S
C138        H142   1.085       .  S
C139        H149   1.111       .  S
C139        H150   1.110       .  S
C139        H151   1.109       .  S
C141        H152   1.110       .  S
C141        H153   1.105       .  S
C141        H154   1.111       .  S
C155        C156   1.399       .  A
C155        C160   1.404       .  A
C155        H165   1.083       .  S
C156        C161   1.480       .  S
C156        C157   1.410       .  A
C157        C158   1.404       .  A
C157        C162   1.506       .  S
C158        C159   1.405       .  A
C158        H163   1.084       .  S
C159        C160   1.420       .  A
C160        C164   1.508       .  S
C161        C166   1.409       .  A
C161        C170   1.401       .  A
C162        H178   1.110       .  S
C162        H179   1.111       .  S
C162        H180   1.111       .  S
C164        H175   1.111       .  S
C164        H176   1.111       .  S
C164        H177   1.110       .  S
C166        C167   1.402       .  A
C166        C171   1.507       .  S
C167        C168   1.405       .  A
C167        H172   1.085       .  S
C168        C169   1.417       .  A
C169        C170   1.403       .  A
C169        C173   1.506       .  S
C170        H174   1.084       .  S
C171        H181   1.111       .  S
C171        H182   1.110       .  S
C171        H183   1.110       .  S
C173        H184   1.111       .  S
C173        H185   1.105       .  S
C173        H186   1.110       .  S
C187        C188   1.400       .  A
C187        C192   1.403       .  A
C187        H197   1.085       .  S
C188        C193   1.478       .  S
C188        C189   1.409       .  A
C189        C190   1.403       .  A
C189        C194   1.506       .  S
C190        C191   1.406       .  A
C190        H195   1.084       .  S
C191        C192   1.419       .  A
C192        C196   1.509       .  S
C193        C198   1.410       .  A
C193        C202   1.399       .  A
C194        H210   1.110       .  S
C194        H211   1.110       .  S
C194        H212   1.111       .  S
C196        H207   1.110       .  S
C196        H208   1.111       .  S
C196        H209   1.105       .  S
C198        C199   1.405       .  A
C198        C203   1.506       .  S
C199        C200   1.404       .  A
C199        H204   1.084       .  S
C200        C201   1.418       .  A
C201        C202   1.401       .  A
C201        C205   1.508       .  S
C202        H206   1.084       .  S
C203        H213   1.111       .  S
C203        H214   1.110       .  S
C203        H215   1.110       .  S
C205        H216   1.111       .  S
C205        H217   1.106       .  S
C205        H218   1.110       .  S
C219        C220   1.400       .  A
C219        C224   1.402       .  A
C219        H229   1.085       .  S
C220        C225   1.478       .  S
C220        C221   1.410       .  A
C221        C222   1.403       .  A
C221        C226   1.507       .  S
C222        C223   1.405       .  A
C222        H227   1.084       .  S
C223        C224   1.416       .  A
C224        C228   1.505       .  S
C225        C230   1.408       .  A
C225        C234   1.401       .  A
C226        H242   1.110       .  S
C226        H243   1.109       .  S
C226        H244   1.111       .  S
C228        H239   1.111       .  S
C228        H240   1.110       .  S
C228        H241   1.106       .  S
C230        C231   1.401       .  A
C230        C235   1.507       .  S
C231        C232   1.405       .  A
C231        H236   1.084       .  S
C232        C233   1.418       .  A
C233        C234   1.404       .  A
C233        C237   1.508       .  S
C234        H238   1.085       .  S
C235        H245   1.111       .  S
C235        H246   1.110       .  S
C235        H247   1.109       .  S
C237        H248   1.110       .  S
C237        H249   1.107       .  S
C237        H250   1.111       .  S
C251        C252   1.402       .  A
C251        C256   1.404       .  A
C251        H261   1.084       .  S
C252        C257   1.481       .  S
C252        C253   1.411       .  A
C253        C254   1.401       .  A
C253        C258   1.507       .  S
C254        C255   1.404       .  A
C254        H259   1.084       .  S
C255        C256   1.417       .  A
C256        C260   1.508       .  S
C257        C262   1.411       .  A
C257        C266   1.400       .  A
C258        H274   1.109       .  S
C258        H275   1.110       .  S
C258        H276   1.111       .  S
C260        H271   1.110       .  S
C260        H272   1.111       .  S
C260        H273   1.106       .  S
C262        C263   1.404       .  A
C262        C267   1.506       .  S
C263        C264   1.405       .  A
C263        H268   1.082       .  S
C264        C265   1.420       .  A
C265        C266   1.402       .  A
C265        C269   1.508       .  S
C266        H270   1.083       .  S
C267        H277   1.110       .  S
C267        H278   1.110       .  S
C267        H279   1.110       .  S
C269        H280   1.111       .  S
C269        H281   1.110       .  S
C269        H282   1.110       .  S
C283        C284   1.400       .  A
C283        C288   1.403       .  A
C283        H293   1.084       .  S
C284        C289   1.480       .  S
C284        C285   1.410       .  A
C285        C286   1.403       .  A
C285        C290   1.506       .  S
C286        C287   1.405       .  A
C286        H291   1.084       .  S
C287        C288   1.415       .  A
C288        C292   1.505       .  S
C289        C294   1.409       .  A
C289        C298   1.401       .  A
C290        H306   1.110       .  S
C290        H307   1.110       .  S
C290        H308   1.111       .  S
C292        H303   1.110       .  S
C292        H304   1.110       .  S
C292        H305   1.107       .  S
C294        C295   1.402       .  A
C294        C299   1.507       .  S
C295        C296   1.405       .  A
C295        H300   1.085       .  S
C296        C297   1.417       .  A
C297        C298   1.404       .  A
C297        C301   1.508       .  S
C298        H302   1.085       .  S
C299        H309   1.111       .  S
C299        H310   1.110       .  S
C299        H311   1.110       .  S
C301        H312   1.110       .  S
C301        H313   1.107       .  S
C301        H314   1.110       .  S
C315        C316   1.398       .  A
C315        C320   1.402       .  A
C315        H325   1.085       .  S
C316        C321   1.476       .  S
C316        C317   1.408       .  A
C317        C318   1.403       .  A
C317        C322   1.506       .  S
C318        C319   1.407       .  A
C318        H323   1.085       .  S
C319        C320   1.418       .  A
C320        C324   1.505       .  S
C321        C326   1.410       .  A
C321        C330   1.399       .  A
C322        H338   1.110       .  S
C322        H339   1.110       .  S
C322        H340   1.111       .  S
C324        H335   1.109       .  S
C324        H336   1.111       .  S
C324        H337   1.110       .  S
C326        C327   1.403       .  A
C326        C331   1.506       .  S
C327        C328   1.402       .  A
C327        H332   1.084       .  S
C328        C329   1.417       .  A
C329        C330   1.401       .  A
C329        C333   1.509       .  S
C330        H334   1.083       .  S
C331        H341   1.111       .  S
C331        H342   1.110       .  S
C331        H343   1.110       .  S
C333        H344   1.111       .  S
C333        H345   1.106       .  S
C333        H346   1.111       .  S
N347        N348   1.320       .  A
N347        N353   1.315       .  A
N347      Mn2452   2.198       .  S
N348        C355   1.352       .  A
N349        N351   1.316       .  A
N349        N350   1.320       .  A
N349       Mn711   2.201   1_545  S
N350        C356   1.353       .  A
N351        N352   1.320       .  A
N351      Mn1760   2.201       .  S
N352        C356   1.353       .  A
N353        N354   1.320       .  A
N354        C355   1.354       .  A
C355        C569   1.477       .  S
C356        C601   1.476       .  S
N357        N363   1.315       .  A
N357        N358   1.319       .  A
N357      Mn1771   2.198   1_545  S
N358        C366   1.353       .  A
N359        N360   1.319       .  A
N359        N361   1.315       .  A
N359       Mn365   2.200       .  S
N360        C367   1.352       .  A
N361        N362   1.320       .  A
N361      Mn2463   2.202       .  S
N362        C367   1.354       .  A
N363        N364   1.320       .  A
N363      Mn1057   2.201   1_545  S
N364        C366   1.354       .  A
Mn365       N695   2.201       .  S
Mn365      N1055   2.201       .  S
Mn365     Cl2465   2.546       .  S
C366        C537   1.479       .  S
C367        C665   1.484       .  S
N368        N369   1.320       .  A
N368        N374   1.316       .  A
N368       Mn376   2.201       .  S
N369        C377   1.352       .  A
N370        N372   1.316       .  A
N370        N371   1.320       .  A
N370       Mn734   2.202   1_556  S
N371        C378   1.352       .  A
N372        N373   1.321       .  A
N372      Mn1068   2.206       .  S
N373        C378   1.354       .  A
N374        N375   1.320       .  A
N375        C377   1.353       .  A
Mn376      N2423   2.198   1_445  S
Mn376      N1735   2.201   1_455  S
Mn376      N1064   2.206   1_545  S
C377        C473   1.481       .  S
C378        C642   1.477       .  S
N379        N380   1.322       .  A
N379        N385   1.315       .  A
N379      Mn1079   2.207   1_455  S
N380        C390   1.356       .  A
N381        N382   1.322       .  A
N381        N383   1.316       .  A
N381       Mn388   2.208       .  S
N382        C391   1.356       .  A
N383        N384   1.318       .  A
N383       Mn387   2.196   1_445  S
N384        C391   1.351       .  A
N385        N386   1.319       .  A
N385      Mn1080   2.196       .  S
N386        C390   1.351       .  A
Mn387      N1741   2.198   1_565  S
Mn387      N2437   2.202       .  S
Mn387      N1071   2.207   1_655  S
Mn387      Cl389   2.546   1_565  S
Mn388       N716   2.202   1_545  S
Mn388      N1077   2.196   1_545  S
Mn388      Cl389   2.546   1_455  S
Cl389     Mn2441   2.546   1_545  S
C390        C505   1.484       .  S
C391        C441   1.483       .  S
N392        N393   1.321       .  A
N392        N398   1.315       .  A
N392       Mn421   2.202       .  S
N393        C400   1.353       .  A
N394        N396   1.316       .  A
N394        N395   1.321       .  A
N394       Mn410   2.202       .  S
N395        C401   1.352       .  A
N396        N397   1.320       .  A
N396       Mn421   2.205       .  S
N397        C401   1.353       .  A
N398        N399   1.318       .  A
N398       Mn410   2.192       .  S
N399        C400   1.350       .  A
C400        C674   1.471       .  S
C401        C546   1.476       .  S
N402        N408   1.315       .  A
N402        N403   1.322       .  A
N402       Mn432   2.208       .  S
N403        C411   1.355       .  A
N404        N405   1.319       .  A
N404        N406   1.315       .  A
N404       Mn410   2.198       .  S
N405        C412   1.353       .  A
N406        N407   1.321       .  A
N406       Mn432   2.204       .  S
N407        C412   1.354       .  A
N408        N409   1.318       .  A
N408       Mn410   2.193       .  S
N409        C411   1.351       .  A
Mn410      Cl434   2.542       .  S
C411        C610   1.483       .  S
C412        C578   1.478       .  S
N413        N414   1.320       .  A
N413        N419   1.316       .  A
N413       Mn421   2.204       .  S
N414        C422   1.353       .  A
N415        N417   1.315       .  A
N415        N416   1.321       .  A
N415       Mn433   2.200       .  S
N416        C423   1.354       .  A
N417        N418   1.320       .  A
N417       Mn421   2.201       .  S
N418        C423   1.353       .  A
N419        N420   1.321       .  A
N419       Mn433   2.206       .  S
N420        C422   1.354       .  A
Mn421      Cl434   2.547       .  S
C422        C450   1.484       .  S
C423        C514   1.479       .  S
N424        N425   1.320       .  A
N424        N430   1.316       .  A
N424       Mn432   2.198       .  S
N425        C435   1.352       .  A
N426        N427   1.319       .  A
N426        N428   1.317       .  A
N426       Mn433   2.200       .  S
N427        C436   1.351       .  A
N428        N429   1.321       .  A
N428       Mn432   2.206       .  S
N429        C436   1.353       .  A
N430        N431   1.321       .  A
N430       Mn433   2.206       .  S
N431        C435   1.354       .  A
Mn432      Cl434   2.550       .  S
Mn433      Cl434   2.545       .  S
C435        C633   1.476       .  S
C436        C482   1.476       .  S
C437        C438   1.400       .  A
C437        C442   1.403       .  A
C437        H447   1.084       .  S
C438        C443   1.484       .  S
C438        C439   1.412       .  A
C439        C440   1.404       .  A
C439        C444   1.507       .  S
C440        C441   1.404       .  A
C440        H445   1.086       .  S
C441        C442   1.419       .  A
C442        C446   1.508       .  S
C443        C448   1.411       .  A
C443        C452   1.401       .  A
C444        H460   1.108       .  S
C444        H461   1.110       .  S
C444        H462   1.112       .  S
C446        H457   1.111       .  S
C446        H458   1.109       .  S
C446        H459   1.111       .  S
C448        C449   1.404       .  A
C448        C453   1.507       .  S
C449        C450   1.406       .  A
C449        H454   1.083       .  S
C450        C451   1.417       .  A
C451        C452   1.404       .  A
C451        C455   1.507       .  S
C452        H456   1.086       .  S
C453        H463   1.110       .  S
C453        H464   1.110       .  S
C453        H465   1.111       .  S
C455        H466   1.113       .  S
C455        H467   1.110       .  S
C455        H468   1.108       .  S
C469        C470   1.398       .  A
C469        C474   1.402       .  A
C469        H479   1.085       .  S
C470        C475   1.478       .  S
C470        C471   1.409       .  A
C471        C472   1.403       .  A
C471        C476   1.506       .  S
C472        C473   1.405       .  A
C472        H477   1.084       .  S
C473        C474   1.422       .  A
C474        C478   1.509       .  S
C475        C480   1.410       .  A
C475        C484   1.398       .  A
C476        H492   1.111       .  S
C476        H493   1.110       .  S
C476        H494   1.110       .  S
C478        H489   1.111       .  S
C478        H490   1.110       .  S
C478        H491   1.103       .  S
C480        C481   1.404       .  A
C480        C485   1.506       .  S
C481        C482   1.403       .  A
C481        H486   1.084       .  S
C482        C483   1.419       .  A
C483        C484   1.402       .  A
C483        C487   1.509       .  S
C484        H488   1.085       .  S
C485        H495   1.111       .  S
C485        H496   1.110       .  S
C485        H497   1.109       .  S
C487        H498   1.110       .  S
C487        H499   1.105       .  S
C487        H500   1.111       .  S
C501        C502   1.399       .  A
C501        C506   1.404       .  A
C501        H511   1.083       .  S
C502        C507   1.480       .  S
C502        C503   1.410       .  A
C503        C504   1.404       .  A
C503        C508   1.506       .  S
C504        C505   1.405       .  A
C504        H509   1.084       .  S
C505        C506   1.420       .  A
C506        C510   1.508       .  S
C507        C512   1.409       .  A
C507        C516   1.401       .  A
C508        H524   1.110       .  S
C508        H525   1.111       .  S
C508        H526   1.111       .  S
C510        H521   1.111       .  S
C510        H522   1.111       .  S
C510        H523   1.110       .  S
C512        C513   1.402       .  A
C512        C517   1.507       .  S
C513        C514   1.405       .  A
C513        H518   1.085       .  S
C514        C515   1.417       .  A
C515        C516   1.403       .  A
C515        C519   1.506       .  S
C516        H520   1.085       .  S
C517        H527   1.111       .  S
C517        H528   1.110       .  S
C517        H529   1.110       .  S
C519        H530   1.111       .  S
C519        H531   1.105       .  S
C519        H532   1.110       .  S
C533        C534   1.400       .  A
C533        C538   1.403       .  A
C533        H543   1.085       .  S
C534        C539   1.478       .  S
C534        C535   1.409       .  A
C535        C536   1.403       .  A
C535        C540   1.506       .  S
C536        C537   1.406       .  A
C536        H541   1.084       .  S
C537        C538   1.419       .  A
C538        C542   1.509       .  S
C539        C544   1.410       .  A
C539        C548   1.399       .  A
C540        H556   1.110       .  S
C540        H557   1.110       .  S
C540        H558   1.111       .  S
C542        H553   1.110       .  S
C542        H554   1.111       .  S
C542        H555   1.105       .  S
C544        C545   1.405       .  A
C544        C549   1.506       .  S
C545        C546   1.404       .  A
C545        H550   1.084       .  S
C546        C547   1.418       .  A
C547        C548   1.401       .  A
C547        C551   1.508       .  S
C548        H552   1.084       .  S
C549        H559   1.111       .  S
C549        H560   1.110       .  S
C549        H561   1.110       .  S
C551        H562   1.111       .  S
C551        H563   1.106       .  S
C551        H564   1.110       .  S
C565        C566   1.400       .  A
C565        C570   1.402       .  A
C565        H575   1.085       .  S
C566        C571   1.478       .  S
C566        C567   1.410       .  A
C567        C568   1.403       .  A
C567        C572   1.507       .  S
C568        C569   1.405       .  A
C568        H573   1.084       .  S
C569        C570   1.416       .  A
C570        C574   1.505       .  S
C571        C576   1.408       .  A
C571        C580   1.401       .  A
C572        H588   1.110       .  S
C572        H589   1.109       .  S
C572        H590   1.111       .  S
C574        H585   1.111       .  S
C574        H586   1.110       .  S
C574        H587   1.106       .  S
C576        C577   1.401       .  A
C576        C581   1.507       .  S
C577        C578   1.405       .  A
C577        H582   1.084       .  S
C578        C579   1.418       .  A
C579        C580   1.404       .  A
C579        C583   1.508       .  S
C580        H584   1.085       .  S
C581        H591   1.111       .  S
C581        H592   1.110       .  S
C581        H593   1.109       .  S
C583        H594   1.110       .  S
C583        H595   1.107       .  S
C583        H596   1.111       .  S
C597        C598   1.402       .  A
C597        C602   1.404       .  A
C597        H607   1.084       .  S
C598        C603   1.481       .  S
C598        C599   1.411       .  A
C599        C600   1.401       .  A
C599        C604   1.507       .  S
C600        C601   1.404       .  A
C600        H605   1.084       .  S
C601        C602   1.417       .  A
C602        C606   1.508       .  S
C603        C608   1.411       .  A
C603        C612   1.400       .  A
C604        H620   1.109       .  S
C604        H621   1.110       .  S
C604        H622   1.111       .  S
C606        H617   1.110       .  S
C606        H618   1.111       .  S
C606        H619   1.106       .  S
C608        C609   1.404       .  A
C608        C613   1.506       .  S
C609        C610   1.405       .  A
C609        H614   1.082       .  S
C610        C611   1.420       .  A
C611        C612   1.402       .  A
C611        C615   1.508       .  S
C612        H616   1.083       .  S
C613        H623   1.110       .  S
C613        H624   1.110       .  S
C613        H625   1.110       .  S
C615        H626   1.111       .  S
C615        H627   1.110       .  S
C615        H628   1.110       .  S
C629        C630   1.400       .  A
C629        C634   1.403       .  A
C629        H639   1.084       .  S
C630        C635   1.480       .  S
C630        C631   1.410       .  A
C631        C632   1.403       .  A
C631        C636   1.506       .  S
C632        C633   1.405       .  A
C632        H637   1.084       .  S
C633        C634   1.415       .  A
C634        C638   1.505       .  S
C635        C640   1.409       .  A
C635        C644   1.401       .  A
C636        H652   1.110       .  S
C636        H653   1.110       .  S
C636        H654   1.111       .  S
C638        H649   1.110       .  S
C638        H650   1.110       .  S
C638        H651   1.107       .  S
C640        C641   1.402       .  A
C640        C645   1.507       .  S
C641        C642   1.405       .  A
C641        H646   1.085       .  S
C642        C643   1.417       .  A
C643        C644   1.404       .  A
C643        C647   1.508       .  S
C644        H648   1.085       .  S
C645        H655   1.111       .  S
C645        H656   1.110       .  S
C645        H657   1.110       .  S
C647        H658   1.110       .  S
C647        H659   1.107       .  S
C647        H660   1.110       .  S
C661        C662   1.398       .  A
C661        C666   1.402       .  A
C661        H671   1.085       .  S
C662        C667   1.476       .  S
C662        C663   1.408       .  A
C663        C664   1.403       .  A
C663        C668   1.506       .  S
C664        C665   1.407       .  A
C664        H669   1.085       .  S
C665        C666   1.418       .  A
C666        C670   1.505       .  S
C667        C672   1.410       .  A
C667        C676   1.399       .  A
C668        H684   1.110       .  S
C668        H685   1.110       .  S
C668        H686   1.111       .  S
C670        H681   1.109       .  S
C670        H682   1.111       .  S
C670        H683   1.110       .  S
C672        C673   1.403       .  A
C672        C677   1.506       .  S
C673        C674   1.402       .  A
C673        H678   1.084       .  S
C674        C675   1.417       .  A
C675        C676   1.401       .  A
C675        C679   1.509       .  S
C676        H680   1.083       .  S
C677        H687   1.111       .  S
C677        H688   1.110       .  S
C677        H689   1.110       .  S
C679        H690   1.111       .  S
C679        H691   1.105       .  S
C679        H692   1.111       .  S
N693        N694   1.320       .  A
N693        N699   1.315       .  A
N693      Mn1414   2.198   1_565  S
N694        C701   1.352       .  A
N695        N697   1.316       .  A
N695        N696   1.320       .  A
N696        C702   1.353       .  A
N697        N698   1.320       .  A
N697      Mn2106   2.201       .  S
N698        C702   1.353       .  A
N699        N700   1.320       .  A
N699      Mn1057   2.203       .  S
N700        C701   1.354       .  A
C701        C915   1.477       .  S
C702        C947   1.476       .  S
N703        N709   1.315       .  A
N703        N704   1.319       .  A
N703      Mn2117   2.198       .  S
N704        C712   1.353       .  A
N705        N706   1.319       .  A
N705        N707   1.315       .  A
N705       Mn711   2.200   1_554  S
N706        C713   1.352       .  A
N707        N708   1.320       .  A
N707      Mn1425   2.202       .  S
N708        C713   1.354       .  A
N709        N710   1.320       .  A
N710        C712   1.354       .  A
Mn711      N1045   2.203       .  S
Mn711     Cl1427   2.546   1_565  S
C712        C883   1.479       .  S
C713       C1011   1.484       .  S
N714        N715   1.320       .  A
N714        N720   1.316       .  A
N714       Mn722   2.201       .  S
N715        C723   1.352       .  A
N716        N718   1.316       .  A
N716        N717   1.320       .  A
N717        C724   1.352       .  A
N718        N719   1.321       .  A
N719        C724   1.354       .  A
N720        N721   1.320       .  A
N720      Mn1080   2.199       .  S
N721        C723   1.353       .  A
Mn722      N1385   2.198   1_455  S
Mn722      N2081   2.201   1_455  S
Mn722     Cl1081   2.546   1_455  S
C723        C819   1.481       .  S
C724        C988   1.477       .  S
N725        N726   1.322       .  A
N725        N731   1.315       .  A
N726        C736   1.356       .  A
N727        N728   1.322       .  A
N727        N729   1.316       .  A
N727       Mn734   2.208       .  S
N728        C737   1.356       .  A
N729        N730   1.318       .  A
N729       Mn733   2.196   1_455  S
N730        C737   1.351       .  A
N731        N732   1.319       .  A
N732        C736   1.351       .  A
Mn733      N2087   2.198       .  S
Mn733      N1399   2.202       .  S
Mn733      Cl735   2.546   1_554  S
Mn734      N1066   2.199   1_554  S
Mn734      Cl735   2.546   1_454  S
Cl735     Mn1403   2.546       .  S
Cl735     Mn1068   2.546   1_655  S
C736        C851   1.484       .  S
C737        C787   1.483       .  S
N738        N739   1.321       .  A
N738        N744   1.315       .  A
N738       Mn767   2.202       .  S
N739        C746   1.353       .  A
N740        N742   1.316       .  A
N740        N741   1.321       .  A
N740       Mn756   2.202       .  S
N741        C747   1.352       .  A
N742        N743   1.320       .  A
N742       Mn767   2.205       .  S
N743        C747   1.353       .  A
N744        N745   1.318       .  A
N744       Mn756   2.192       .  S
N745        C746   1.350       .  A
C746       C1020   1.471       .  S
C747        C892   1.476       .  S
N748        N754   1.315       .  A
N748        N749   1.322       .  A
N748       Mn778   2.208       .  S
N749        C757   1.355       .  A
N750        N751   1.319       .  A
N750        N752   1.315       .  A
N750       Mn756   2.198       .  S
N751        C758   1.353       .  A
N752        N753   1.321       .  A
N752       Mn778   2.204       .  S
N753        C758   1.354       .  A
N754        N755   1.318       .  A
N754       Mn756   2.193       .  S
N755        C757   1.351       .  A
Mn756      Cl780   2.542       .  S
C757        C956   1.483       .  S
C758        C924   1.478       .  S
N759        N760   1.320       .  A
N759        N765   1.316       .  A
N759       Mn767   2.204       .  S
N760        C768   1.353       .  A
N761        N763   1.315       .  A
N761        N762   1.321       .  A
N761       Mn779   2.200       .  S
N762        C769   1.354       .  A
N763        N764   1.320       .  A
N763       Mn767   2.201       .  S
N764        C769   1.353       .  A
N765        N766   1.321       .  A
N765       Mn779   2.206       .  S
N766        C768   1.354       .  A
Mn767      Cl780   2.547       .  S
C768        C796   1.484       .  S
C769        C860   1.479       .  S
N770        N771   1.320       .  A
N770        N776   1.316       .  A
N770       Mn778   2.198       .  S
N771        C781   1.352       .  A
N772        N773   1.319       .  A
N772        N774   1.317       .  A
N772       Mn779   2.200       .  S
N773        C782   1.351       .  A
N774        N775   1.321       .  A
N774       Mn778   2.206       .  S
N775        C782   1.353       .  A
N776        N777   1.321       .  A
N776       Mn779   2.206       .  S
N777        C781   1.354       .  A
Mn778      Cl780   2.550       .  S
Mn779      Cl780   2.545       .  S
C781        C979   1.476       .  S
C782        C828   1.476       .  S
C783        C784   1.400       .  A
C783        C788   1.403       .  A
C783        H793   1.084       .  S
C784        C789   1.484       .  S
C784        C785   1.412       .  A
C785        C786   1.404       .  A
C785        C790   1.507       .  S
C786        C787   1.404       .  A
C786        H791   1.086       .  S
C787        C788   1.419       .  A
C788        C792   1.508       .  S
C789        C794   1.411       .  A
C789        C798   1.401       .  A
C790        H806   1.108       .  S
C790        H807   1.110       .  S
C790        H808   1.112       .  S
C792        H803   1.111       .  S
C792        H804   1.109       .  S
C792        H805   1.111       .  S
C794        C795   1.404       .  A
C794        C799   1.507       .  S
C795        C796   1.406       .  A
C795        H800   1.083       .  S
C796        C797   1.417       .  A
C797        C798   1.404       .  A
C797        C801   1.507       .  S
C798        H802   1.086       .  S
C799        H809   1.110       .  S
C799        H810   1.110       .  S
C799        H811   1.111       .  S
C801        H812   1.113       .  S
C801        H813   1.110       .  S
C801        H814   1.108       .  S
C815        C816   1.398       .  A
C815        C820   1.402       .  A
C815        H825   1.085       .  S
C816        C821   1.478       .  S
C816        C817   1.409       .  A
C817        C818   1.403       .  A
C817        C822   1.506       .  S
C818        C819   1.405       .  A
C818        H823   1.084       .  S
C819        C820   1.422       .  A
C820        C824   1.509       .  S
C821        C826   1.410       .  A
C821        C830   1.398       .  A
C822        H838   1.111       .  S
C822        H839   1.110       .  S
C822        H840   1.110       .  S
C824        H835   1.111       .  S
C824        H836   1.110       .  S
C824        H837   1.103       .  S
C826        C827   1.404       .  A
C826        C831   1.506       .  S
C827        C828   1.403       .  A
C827        H832   1.084       .  S
C828        C829   1.419       .  A
C829        C830   1.402       .  A
C829        C833   1.509       .  S
C830        H834   1.085       .  S
C831        H841   1.111       .  S
C831        H842   1.110       .  S
C831        H843   1.109       .  S
C833        H844   1.110       .  S
C833        H845   1.105       .  S
C833        H846   1.111       .  S
C847        C848   1.399       .  A
C847        C852   1.404       .  A
C847        H857   1.083       .  S
C848        C853   1.480       .  S
C848        C849   1.410       .  A
C849        C850   1.404       .  A
C849        C854   1.506       .  S
C850        C851   1.405       .  A
C850        H855   1.084       .  S
C851        C852   1.420       .  A
C852        C856   1.508       .  S
C853        C858   1.409       .  A
C853        C862   1.401       .  A
C854        H870   1.110       .  S
C854        H871   1.111       .  S
C854        H872   1.111       .  S
C856        H867   1.111       .  S
C856        H868   1.111       .  S
C856        H869   1.110       .  S
C858        C859   1.402       .  A
C858        C863   1.507       .  S
C859        C860   1.405       .  A
C859        H864   1.085       .  S
C860        C861   1.417       .  A
C861        C862   1.403       .  A
C861        C865   1.506       .  S
C862        H866   1.085       .  S
C863        H873   1.111       .  S
C863        H874   1.110       .  S
C863        H875   1.110       .  S
C865        H876   1.111       .  S
C865        H877   1.105       .  S
C865        H878   1.110       .  S
C879        C880   1.400       .  A
C879        C884   1.403       .  A
C879        H889   1.085       .  S
C880        C885   1.478       .  S
C880        C881   1.409       .  A
C881        C882   1.403       .  A
C881        C886   1.506       .  S
C882        C883   1.406       .  A
C882        H887   1.084       .  S
C883        C884   1.419       .  A
C884        C888   1.509       .  S
C885        C890   1.410       .  A
C885        C894   1.399       .  A
C886        H902   1.110       .  S
C886        H903   1.110       .  S
C886        H904   1.111       .  S
C888        H899   1.110       .  S
C888        H900   1.111       .  S
C888        H901   1.105       .  S
C890        C891   1.405       .  A
C890        C895   1.506       .  S
C891        C892   1.404       .  A
C891        H896   1.084       .  S
C892        C893   1.418       .  A
C893        C894   1.401       .  A
C893        C897   1.508       .  S
C894        H898   1.084       .  S
C895        H905   1.111       .  S
C895        H906   1.110       .  S
C895        H907   1.110       .  S
C897        H908   1.111       .  S
C897        H909   1.106       .  S
C897        H910   1.110       .  S
C911        C912   1.400       .  A
C911        C916   1.402       .  A
C911        H921   1.085       .  S
C912        C917   1.478       .  S
C912        C913   1.410       .  A
C913        C914   1.403       .  A
C913        C918   1.507       .  S
C914        C915   1.405       .  A
C914        H919   1.084       .  S
C915        C916   1.416       .  A
C916        C920   1.505       .  S
C917        C922   1.408       .  A
C917        C926   1.401       .  A
C918        H934   1.110       .  S
C918        H935   1.109       .  S
C918        H936   1.111       .  S
C920        H931   1.111       .  S
C920        H932   1.110       .  S
C920        H933   1.106       .  S
C922        C923   1.401       .  A
C922        C927   1.507       .  S
C923        C924   1.405       .  A
C923        H928   1.084       .  S
C924        C925   1.418       .  A
C925        C926   1.404       .  A
C925        C929   1.508       .  S
C926        H930   1.085       .  S
C927        H937   1.111       .  S
C927        H938   1.110       .  S
C927        H939   1.109       .  S
C929        H940   1.110       .  S
C929        H941   1.107       .  S
C929        H942   1.111       .  S
C943        C944   1.402       .  A
C943        C948   1.404       .  A
C943        H953   1.084       .  S
C944        C949   1.481       .  S
C944        C945   1.411       .  A
C945        C946   1.401       .  A
C945        C950   1.507       .  S
C946        C947   1.404       .  A
C946        H951   1.084       .  S
C947        C948   1.417       .  A
C948        C952   1.508       .  S
C949        C954   1.411       .  A
C949        C958   1.400       .  A
C950        H966   1.109       .  S
C950        H967   1.110       .  S
C950        H968   1.111       .  S
C952        H963   1.110       .  S
C952        H964   1.111       .  S
C952        H965   1.106       .  S
C954        C955   1.404       .  A
C954        C959   1.506       .  S
C955        C956   1.405       .  A
C955        H960   1.082       .  S
C956        C957   1.420       .  A
C957        C958   1.402       .  A
C957        C961   1.508       .  S
C958        H962   1.083       .  S
C959        H969   1.110       .  S
C959        H970   1.110       .  S
C959        H971   1.110       .  S
C961        H972   1.111       .  S
C961        H973   1.110       .  S
C961        H974   1.110       .  S
C975        C976   1.400       .  A
C975        C980   1.403       .  A
C975        H985   1.084       .  S
C976        C981   1.480       .  S
C976        C977   1.410       .  A
C977        C978   1.403       .  A
C977        C982   1.506       .  S
C978        C979   1.405       .  A
C978        H983   1.084       .  S
C979        C980   1.415       .  A
C980        C984   1.505       .  S
C981        C986   1.409       .  A
C981        C990   1.401       .  A
C982        H998   1.110       .  S
C982        H999   1.110       .  S
C982       H1000   1.111       .  S
C984        H995   1.110       .  S
C984        H996   1.110       .  S
C984        H997   1.106       .  S
C986        C987   1.402       .  A
C986        C991   1.507       .  S
C987        C988   1.405       .  A
C987        H992   1.085       .  S
C988        C989   1.417       .  A
C989        C990   1.404       .  A
C989        C993   1.508       .  S
C990        H994   1.085       .  S
C991       H1001   1.111       .  S
C991       H1002   1.110       .  S
C991       H1003   1.110       .  S
C993       H1004   1.110       .  S
C993       H1005   1.107       .  S
C993       H1006   1.110       .  S
C1007      C1008   1.398       .  A
C1007      C1012   1.402       .  A
C1007      H1017   1.085       .  S
C1008      C1013   1.476       .  S
C1008      C1009   1.408       .  A
C1009      C1010   1.403       .  A
C1009      C1014   1.506       .  S
C1010      C1011   1.407       .  A
C1010      H1015   1.085       .  S
C1011      C1012   1.418       .  A
C1012      C1016   1.505       .  S
C1013      C1018   1.410       .  A
C1013      C1022   1.399       .  A
C1014      H1030   1.110       .  S
C1014      H1031   1.110       .  S
C1014      H1032   1.111       .  S
C1016      H1027   1.109       .  S
C1016      H1028   1.111       .  S
C1016      H1029   1.110       .  S
C1018      C1019   1.403       .  A
C1018      C1023   1.506       .  S
C1019      C1020   1.402       .  A
C1019      H1024   1.084       .  S
C1020      C1021   1.417       .  A
C1021      C1022   1.401       .  A
C1021      C1025   1.509       .  S
C1022      H1026   1.083       .  S
C1023      H1033   1.111       .  S
C1023      H1034   1.110       .  S
C1023      H1035   1.110       .  S
C1025      H1036   1.111       .  S
C1025      H1037   1.105       .  S
C1025      H1038   1.111       .  S
N1039      N1040   1.320       .  A
N1039      N1045   1.315       .  A
N1039     Mn1760   2.198   1_565  S
N1040      C1047   1.352       .  A
N1041      N1043   1.316       .  A
N1041      N1042   1.320       .  A
N1042      C1048   1.353       .  A
N1043      N1044   1.320       .  A
N1043     Mn2452   2.201       .  S
N1044      C1048   1.353       .  A
N1045      N1046   1.320       .  A
N1046      C1047   1.354       .  A
C1047      C1261   1.477       .  S
C1048      C1293   1.476       .  S
N1049      N1055   1.315       .  A
N1049      N1050   1.319       .  A
N1049     Mn2463   2.198       .  S
N1050      C1058   1.352       .  A
N1051      N1052   1.319       .  A
N1051      N1053   1.315       .  A
N1051     Mn1057   2.200       .  S
N1052      C1059   1.352       .  A
N1053      N1054   1.320       .  A
N1053     Mn1771   2.202       .  S
N1054      C1059   1.354       .  A
N1055      N1056   1.320       .  A
N1056      C1058   1.354       .  A
Mn1057    Cl1773   2.546   1_565  S
C1058      C1229   1.479       .  S
C1059      C1357   1.484       .  S
N1060      N1061   1.320       .  A
N1060      N1066   1.316       .  A
N1060     Mn1068   2.201       .  S
N1061      C1069   1.352       .  A
N1062      N1064   1.316       .  A
N1062      N1063   1.320       .  A
N1063      C1070   1.352       .  A
N1064      N1065   1.321       .  A
N1065      C1070   1.354       .  A
N1066      N1067   1.320       .  A
N1067      C1069   1.353       .  A
Mn1068     N1731   2.198   1_455  S
Mn1068     N2427   2.201   1_455  S
C1069      C1165   1.481       .  S
C1070      C1334   1.477       .  S
N1071      N1072   1.322       .  A
N1071      N1077   1.315       .  A
N1072      C1082   1.356       .  A
N1073      N1074   1.322       .  A
N1073      N1075   1.316       .  A
N1073     Mn1080   2.208       .  S
N1074      C1083   1.356       .  A
N1075      N1076   1.318       .  A
N1075     Mn1079   2.196   1_455  S
N1076      C1083   1.351       .  A
N1077      N1078   1.319       .  A
N1078      C1082   1.351       .  A
Mn1079     N2433   2.198       .  S
Mn1079     N1745   2.202       .  S
Mn1079    Cl1081   2.546       .  S
Mn1080    Cl1081   2.546   1_455  S
Cl1081    Mn1749   2.546       .  S
C1082      C1197   1.484       .  S
C1083      C1133   1.483       .  S
N1084      N1085   1.321       .  A
N1084      N1090   1.315       .  A
N1084     Mn1113   2.202       .  S
N1085      C1092   1.353       .  A
N1086      N1088   1.316       .  A
N1086      N1087   1.321       .  A
N1086     Mn1102   2.202       .  S
N1087      C1093   1.352       .  A
N1088      N1089   1.320       .  A
N1088     Mn1113   2.205       .  S
N1089      C1093   1.353       .  A
N1090      N1091   1.318       .  A
N1090     Mn1102   2.192       .  S
N1091      C1092   1.350       .  A
C1092      C1366   1.471       .  S
C1093      C1238   1.476       .  S
N1094      N1100   1.315       .  A
N1094      N1095   1.322       .  A
N1094     Mn1124   2.208       .  S
N1095      C1103   1.355       .  A
N1096      N1097   1.319       .  A
N1096      N1098   1.315       .  A
N1096     Mn1102   2.198       .  S
N1097      C1104   1.353       .  A
N1098      N1099   1.321       .  A
N1098     Mn1124   2.204       .  S
N1099      C1104   1.354       .  A
N1100      N1101   1.318       .  A
N1100     Mn1102   2.193       .  S
N1101      C1103   1.351       .  A
Mn1102    Cl1126   2.542       .  S
C1103      C1302   1.483       .  S
C1104      C1270   1.478       .  S
N1105      N1106   1.320       .  A
N1105      N1111   1.316       .  A
N1105     Mn1113   2.204       .  S
N1106      C1114   1.353       .  A
N1107      N1109   1.315       .  A
N1107      N1108   1.321       .  A
N1107     Mn1125   2.200       .  S
N1108      C1115   1.354       .  A
N1109      N1110   1.320       .  A
N1109     Mn1113   2.201       .  S
N1110      C1115   1.353       .  A
N1111      N1112   1.321       .  A
N1111     Mn1125   2.206       .  S
N1112      C1114   1.354       .  A
Mn1113    Cl1126   2.547       .  S
C1114      C1142   1.484       .  S
C1115      C1206   1.479       .  S
N1116      N1117   1.320       .  A
N1116      N1122   1.316       .  A
N1116     Mn1124   2.198       .  S
N1117      C1127   1.352       .  A
N1118      N1119   1.319       .  A
N1118      N1120   1.317       .  A
N1118     Mn1125   2.200       .  S
N1119      C1128   1.351       .  A
N1120      N1121   1.321       .  A
N1120     Mn1124   2.206       .  S
N1121      C1128   1.353       .  A
N1122      N1123   1.321       .  A
N1122     Mn1125   2.206       .  S
N1123      C1127   1.354       .  A
Mn1124    Cl1126   2.550       .  S
Mn1125    Cl1126   2.545       .  S
C1127      C1325   1.476       .  S
C1128      C1174   1.476       .  S
C1129      C1130   1.400       .  A
C1129      C1134   1.403       .  A
C1129      H1139   1.084       .  S
C1130      C1135   1.484       .  S
C1130      C1131   1.412       .  A
C1131      C1132   1.404       .  A
C1131      C1136   1.507       .  S
C1132      C1133   1.404       .  A
C1132      H1137   1.086       .  S
C1133      C1134   1.419       .  A
C1134      C1138   1.508       .  S
C1135      C1140   1.411       .  A
C1135      C1144   1.401       .  A
C1136      H1152   1.108       .  S
C1136      H1153   1.110       .  S
C1136      H1154   1.112       .  S
C1138      H1149   1.111       .  S
C1138      H1150   1.109       .  S
C1138      H1151   1.111       .  S
C1140      C1141   1.404       .  A
C1140      C1145   1.507       .  S
C1141      C1142   1.406       .  A
C1141      H1146   1.083       .  S
C1142      C1143   1.417       .  A
C1143      C1144   1.404       .  A
C1143      C1147   1.507       .  S
C1144      H1148   1.086       .  S
C1145      H1155   1.110       .  S
C1145      H1156   1.110       .  S
C1145      H1157   1.111       .  S
C1147      H1158   1.113       .  S
C1147      H1159   1.110       .  S
C1147      H1160   1.108       .  S
C1161      C1162   1.398       .  A
C1161      C1166   1.402       .  A
C1161      H1171   1.085       .  S
C1162      C1167   1.478       .  S
C1162      C1163   1.409       .  A
C1163      C1164   1.403       .  A
C1163      C1168   1.506       .  S
C1164      C1165   1.405       .  A
C1164      H1169   1.084       .  S
C1165      C1166   1.422       .  A
C1166      C1170   1.509       .  S
C1167      C1172   1.410       .  A
C1167      C1176   1.398       .  A
C1168      H1184   1.111       .  S
C1168      H1185   1.110       .  S
C1168      H1186   1.110       .  S
C1170      H1181   1.111       .  S
C1170      H1182   1.110       .  S
C1170      H1183   1.103       .  S
C1172      C1173   1.404       .  A
C1172      C1177   1.506       .  S
C1173      C1174   1.403       .  A
C1173      H1178   1.084       .  S
C1174      C1175   1.419       .  A
C1175      C1176   1.402       .  A
C1175      C1179   1.509       .  S
C1176      H1180   1.085       .  S
C1177      H1187   1.111       .  S
C1177      H1188   1.110       .  S
C1177      H1189   1.109       .  S
C1179      H1190   1.110       .  S
C1179      H1191   1.105       .  S
C1179      H1192   1.111       .  S
C1193      C1194   1.399       .  A
C1193      C1198   1.404       .  A
C1193      H1203   1.083       .  S
C1194      C1199   1.480       .  S
C1194      C1195   1.410       .  A
C1195      C1196   1.404       .  A
C1195      C1200   1.506       .  S
C1196      C1197   1.405       .  A
C1196      H1201   1.084       .  S
C1197      C1198   1.420       .  A
C1198      C1202   1.508       .  S
C1199      C1204   1.409       .  A
C1199      C1208   1.401       .  A
C1200      H1216   1.110       .  S
C1200      H1217   1.111       .  S
C1200      H1218   1.111       .  S
C1202      H1213   1.111       .  S
C1202      H1214   1.111       .  S
C1202      H1215   1.110       .  S
C1204      C1205   1.402       .  A
C1204      C1209   1.507       .  S
C1205      C1206   1.405       .  A
C1205      H1210   1.085       .  S
C1206      C1207   1.417       .  A
C1207      C1208   1.403       .  A
C1207      C1211   1.506       .  S
C1208      H1212   1.085       .  S
C1209      H1219   1.111       .  S
C1209      H1220   1.110       .  S
C1209      H1221   1.110       .  S
C1211      H1222   1.111       .  S
C1211      H1223   1.105       .  S
C1211      H1224   1.110       .  S
C1225      C1226   1.400       .  A
C1225      C1230   1.403       .  A
C1225      H1235   1.085       .  S
C1226      C1231   1.478       .  S
C1226      C1227   1.409       .  A
C1227      C1228   1.403       .  A
C1227      C1232   1.506       .  S
C1228      C1229   1.406       .  A
C1228      H1233   1.084       .  S
C1229      C1230   1.419       .  A
C1230      C1234   1.509       .  S
C1231      C1236   1.410       .  A
C1231      C1240   1.399       .  A
C1232      H1248   1.110       .  S
C1232      H1249   1.110       .  S
C1232      H1250   1.111       .  S
C1234      H1245   1.110       .  S
C1234      H1246   1.111       .  S
C1234      H1247   1.105       .  S
C1236      C1237   1.405       .  A
C1236      C1241   1.506       .  S
C1237      C1238   1.404       .  A
C1237      H1242   1.084       .  S
C1238      C1239   1.418       .  A
C1239      C1240   1.401       .  A
C1239      C1243   1.508       .  S
C1240      H1244   1.084       .  S
C1241      H1251   1.111       .  S
C1241      H1252   1.110       .  S
C1241      H1253   1.110       .  S
C1243      H1254   1.111       .  S
C1243      H1255   1.106       .  S
C1243      H1256   1.110       .  S
C1257      C1258   1.400       .  A
C1257      C1262   1.402       .  A
C1257      H1267   1.085       .  S
C1258      C1263   1.478       .  S
C1258      C1259   1.410       .  A
C1259      C1260   1.403       .  A
C1259      C1264   1.507       .  S
C1260      C1261   1.405       .  A
C1260      H1265   1.084       .  S
C1261      C1262   1.416       .  A
C1262      C1266   1.505       .  S
C1263      C1268   1.408       .  A
C1263      C1272   1.401       .  A
C1264      H1280   1.110       .  S
C1264      H1281   1.109       .  S
C1264      H1282   1.111       .  S
C1266      H1277   1.111       .  S
C1266      H1278   1.110       .  S
C1266      H1279   1.106       .  S
C1268      C1269   1.401       .  A
C1268      C1273   1.507       .  S
C1269      C1270   1.405       .  A
C1269      H1274   1.084       .  S
C1270      C1271   1.418       .  A
C1271      C1272   1.404       .  A
C1271      C1275   1.508       .  S
C1272      H1276   1.085       .  S
C1273      H1283   1.111       .  S
C1273      H1284   1.110       .  S
C1273      H1285   1.109       .  S
C1275      H1286   1.110       .  S
C1275      H1287   1.106       .  S
C1275      H1288   1.111       .  S
C1289      C1290   1.402       .  A
C1289      C1294   1.404       .  A
C1289      H1299   1.084       .  S
C1290      C1295   1.481       .  S
C1290      C1291   1.411       .  A
C1291      C1292   1.401       .  A
C1291      C1296   1.507       .  S
C1292      C1293   1.404       .  A
C1292      H1297   1.084       .  S
C1293      C1294   1.417       .  A
C1294      C1298   1.508       .  S
C1295      C1300   1.411       .  A
C1295      C1304   1.400       .  A
C1296      H1312   1.109       .  S
C1296      H1313   1.110       .  S
C1296      H1314   1.111       .  S
C1298      H1309   1.110       .  S
C1298      H1310   1.111       .  S
C1298      H1311   1.106       .  S
C1300      C1301   1.404       .  A
C1300      C1305   1.506       .  S
C1301      C1302   1.405       .  A
C1301      H1306   1.082       .  S
C1302      C1303   1.420       .  A
C1303      C1304   1.402       .  A
C1303      C1307   1.508       .  S
C1304      H1308   1.083       .  S
C1305      H1315   1.110       .  S
C1305      H1316   1.110       .  S
C1305      H1317   1.110       .  S
C1307      H1318   1.111       .  S
C1307      H1319   1.110       .  S
C1307      H1320   1.110       .  S
C1321      C1322   1.400       .  A
C1321      C1326   1.403       .  A
C1321      H1331   1.084       .  S
C1322      C1327   1.480       .  S
C1322      C1323   1.410       .  A
C1323      C1324   1.403       .  A
C1323      C1328   1.506       .  S
C1324      C1325   1.405       .  A
C1324      H1329   1.084       .  S
C1325      C1326   1.415       .  A
C1326      C1330   1.505       .  S
C1327      C1332   1.409       .  A
C1327      C1336   1.401       .  A
C1328      H1344   1.110       .  S
C1328      H1345   1.110       .  S
C1328      H1346   1.111       .  S
C1330      H1341   1.110       .  S
C1330      H1342   1.110       .  S
C1330      H1343   1.107       .  S
C1332      C1333   1.402       .  A
C1332      C1337   1.507       .  S
C1333      C1334   1.405       .  A
C1333      H1338   1.085       .  S
C1334      C1335   1.417       .  A
C1335      C1336   1.404       .  A
C1335      C1339   1.508       .  S
C1336      H1340   1.085       .  S
C1337      H1347   1.111       .  S
C1337      H1348   1.110       .  S
C1337      H1349   1.110       .  S
C1339      H1350   1.110       .  S
C1339      H1351   1.107       .  S
C1339      H1352   1.110       .  S
C1353      C1354   1.398       .  A
C1353      C1358   1.402       .  A
C1353      H1363   1.085       .  S
C1354      C1359   1.476       .  S
C1354      C1355   1.408       .  A
C1355      C1356   1.403       .  A
C1355      C1360   1.506       .  S
C1356      C1357   1.407       .  A
C1356      H1361   1.085       .  S
C1357      C1358   1.418       .  A
C1358      C1362   1.505       .  S
C1359      C1364   1.410       .  A
C1359      C1368   1.399       .  A
C1360      H1376   1.110       .  S
C1360      H1377   1.110       .  S
C1360      H1378   1.111       .  S
C1362      H1373   1.109       .  S
C1362      H1374   1.111       .  S
C1362      H1375   1.110       .  S
C1364      C1365   1.403       .  A
C1364      C1369   1.506       .  S
C1365      C1366   1.402       .  A
C1365      H1370   1.084       .  S
C1366      C1367   1.417       .  A
C1367      C1368   1.401       .  A
C1367      C1371   1.509       .  S
C1368      H1372   1.083       .  S
C1369      H1379   1.111       .  S
C1369      H1380   1.110       .  S
C1369      H1381   1.110       .  S
C1371      H1382   1.111       .  S
C1371      H1383   1.106       .  S
C1371      H1384   1.111       .  S
N1385      N1386   1.320       .  A
N1385      N1391   1.315       .  A
N1386      C1393   1.352       .  A
N1387      N1389   1.316       .  A
N1387      N1388   1.320       .  A
N1387     Mn2441   2.201   1_545  S
N1388      C1394   1.353       .  A
N1389      N1390   1.320       .  A
N1390      C1394   1.353       .  A
N1391      N1392   1.320       .  A
N1391     Mn1749   2.203       .  S
N1392      C1393   1.354       .  A
C1393      C1607   1.477       .  S
C1394      C1639   1.476       .  S
N1395      N1401   1.315       .  A
N1395      N1396   1.319       .  A
N1396      C1404   1.353       .  A
N1397      N1398   1.319       .  A
N1397      N1399   1.315       .  A
N1397     Mn1403   2.200   1_554  S
N1398      C1405   1.352       .  A
N1399      N1400   1.320       .  A
N1400      C1405   1.354       .  A
N1401      N1402   1.320       .  A
N1401     Mn2095   2.201   1_544  S
N1402      C1404   1.354       .  A
Mn1403     N2425   2.201       .  S
Mn1403     N1737   2.203       .  S
Mn1403     N2093   2.201   1_556  S
C1404      C1575   1.479       .  S
C1405      C1703   1.484       .  S
N1406      N1407   1.320       .  A
N1406      N1412   1.316       .  A
N1406     Mn1414   2.201       .  S
N1407      C1415   1.352       .  A
N1408      N1410   1.316       .  A
N1408      N1409   1.320       .  A
N1408     Mn2464   2.202       .  S
N1409      C1416   1.352       .  A
N1410      N1411   1.321       .  A
N1410     Mn2106   2.206       .  S
N1411      C1416   1.354       .  A
N1412      N1413   1.320       .  A
N1412     Mn1772   2.199       .  S
N1413      C1415   1.353       .  A
Mn1414     N2102   2.206   1_545  S
Mn1414    Cl1773   2.546       .  S
C1415      C1511   1.481       .  S
C1416      C1680   1.477       .  S
N1417      N1418   1.322       .  A
N1417      N1423   1.315       .  A
N1417     Mn2117   2.207       .  S
N1418      C1428   1.356       .  A
N1419      N1420   1.322       .  A
N1419      N1421   1.316       .  A
N1419     Mn1426   2.208       .  S
N1420      C1429   1.356       .  A
N1421      N1422   1.318       .  A
N1421     Mn1425   2.196   1_545  S
N1422      C1429   1.351       .  A
N1423      N1424   1.319       .  A
N1423     Mn2118   2.196       .  S
N1424      C1428   1.351       .  A
Mn1425     N2109   2.207       .  S
Mn1425    Cl1427   2.546   1_564  S
Mn1426     N2446   2.202   1_544  S
Mn1426     N1758   2.199   1_554  S
Mn1426     N2115   2.196   1_545  S
Mn1426    Cl1427   2.546   1_554  S
Cl1427    Mn1760   2.546       .  S
C1428      C1543   1.484       .  S
C1429      C1479   1.483       .  S
N1430      N1431   1.321       .  A
N1430      N1436   1.315       .  A
N1430     Mn1459   2.202       .  S
N1431      C1438   1.353       .  A
N1432      N1434   1.316       .  A
N1432      N1433   1.321       .  A
N1432     Mn1448   2.202       .  S
N1433      C1439   1.352       .  A
N1434      N1435   1.320       .  A
N1434     Mn1459   2.205       .  S
N1435      C1439   1.353       .  A
N1436      N1437   1.318       .  A
N1436     Mn1448   2.192       .  S
N1437      C1438   1.350       .  A
C1438      C1712   1.471       .  S
C1439      C1584   1.476       .  S
N1440      N1446   1.315       .  A
N1440      N1441   1.322       .  A
N1440     Mn1470   2.208       .  S
N1441      C1449   1.355       .  A
N1442      N1443   1.319       .  A
N1442      N1444   1.315       .  A
N1442     Mn1448   2.198       .  S
N1443      C1450   1.353       .  A
N1444      N1445   1.321       .  A
N1444     Mn1470   2.204       .  S
N1445      C1450   1.354       .  A
N1446      N1447   1.318       .  A
N1446     Mn1448   2.193       .  S
N1447      C1449   1.351       .  A
Mn1448    Cl1472   2.542       .  S
C1449      C1648   1.483       .  S
C1450      C1616   1.478       .  S
N1451      N1452   1.320       .  A
N1451      N1457   1.316       .  A
N1451     Mn1459   2.204       .  S
N1452      C1460   1.353       .  A
N1453      N1455   1.315       .  A
N1453      N1454   1.321       .  A
N1453     Mn1471   2.200       .  S
N1454      C1461   1.354       .  A
N1455      N1456   1.320       .  A
N1455     Mn1459   2.201       .  S
N1456      C1461   1.353       .  A
N1457      N1458   1.321       .  A
N1457     Mn1471   2.206       .  S
N1458      C1460   1.354       .  A
Mn1459    Cl1472   2.547       .  S
C1460      C1488   1.484       .  S
C1461      C1552   1.479       .  S
N1462      N1463   1.320       .  A
N1462      N1468   1.316       .  A
N1462     Mn1470   2.198       .  S
N1463      C1473   1.352       .  A
N1464      N1465   1.319       .  A
N1464      N1466   1.317       .  A
N1464     Mn1471   2.200       .  S
N1465      C1474   1.351       .  A
N1466      N1467   1.321       .  A
N1466     Mn1470   2.206       .  S
N1467      C1474   1.353       .  A
N1468      N1469   1.321       .  A
N1468     Mn1471   2.206       .  S
N1469      C1473   1.354       .  A
Mn1470    Cl1472   2.550       .  S
Mn1471    Cl1472   2.545       .  S
C1473      C1671   1.476       .  S
C1474      C1520   1.476       .  S
C1475      C1476   1.400       .  A
C1475      C1480   1.403       .  A
C1475      H1485   1.084       .  S
C1476      C1481   1.484       .  S
C1476      C1477   1.412       .  A
C1477      C1478   1.404       .  A
C1477      C1482   1.507       .  S
C1478      C1479   1.404       .  A
C1478      H1483   1.086       .  S
C1479      C1480   1.419       .  A
C1480      C1484   1.508       .  S
C1481      C1486   1.411       .  A
C1481      C1490   1.401       .  A
C1482      H1498   1.108       .  S
C1482      H1499   1.110       .  S
C1482      H1500   1.112       .  S
C1484      H1495   1.111       .  S
C1484      H1496   1.109       .  S
C1484      H1497   1.111       .  S
C1486      C1487   1.404       .  A
C1486      C1491   1.507       .  S
C1487      C1488   1.406       .  A
C1487      H1492   1.083       .  S
C1488      C1489   1.417       .  A
C1489      C1490   1.404       .  A
C1489      C1493   1.507       .  S
C1490      H1494   1.086       .  S
C1491      H1501   1.110       .  S
C1491      H1502   1.110       .  S
C1491      H1503   1.111       .  S
C1493      H1504   1.113       .  S
C1493      H1505   1.110       .  S
C1493      H1506   1.108       .  S
C1507      C1508   1.398       .  A
C1507      C1512   1.402       .  A
C1507      H1517   1.085       .  S
C1508      C1513   1.478       .  S
C1508      C1509   1.409       .  A
C1509      C1510   1.403       .  A
C1509      C1514   1.506       .  S
C1510      C1511   1.405       .  A
C1510      H1515   1.084       .  S
C1511      C1512   1.422       .  A
C1512      C1516   1.509       .  S
C1513      C1518   1.410       .  A
C1513      C1522   1.398       .  A
C1514      H1530   1.111       .  S
C1514      H1531   1.110       .  S
C1514      H1532   1.110       .  S
C1516      H1527   1.111       .  S
C1516      H1528   1.110       .  S
C1516      H1529   1.103       .  S
C1518      C1519   1.404       .  A
C1518      C1523   1.506       .  S
C1519      C1520   1.403       .  A
C1519      H1524   1.084       .  S
C1520      C1521   1.419       .  A
C1521      C1522   1.402       .  A
C1521      C1525   1.509       .  S
C1522      H1526   1.085       .  S
C1523      H1533   1.111       .  S
C1523      H1534   1.110       .  S
C1523      H1535   1.109       .  S
C1525      H1536   1.110       .  S
C1525      H1537   1.105       .  S
C1525      H1538   1.111       .  S
C1539      C1540   1.399       .  A
C1539      C1544   1.404       .  A
C1539      H1549   1.083       .  S
C1540      C1545   1.480       .  S
C1540      C1541   1.410       .  A
C1541      C1542   1.404       .  A
C1541      C1546   1.506       .  S
C1542      C1543   1.405       .  A
C1542      H1547   1.084       .  S
C1543      C1544   1.420       .  A
C1544      C1548   1.508       .  S
C1545      C1550   1.409       .  A
C1545      C1554   1.401       .  A
C1546      H1562   1.110       .  S
C1546      H1563   1.111       .  S
C1546      H1564   1.111       .  S
C1548      H1559   1.111       .  S
C1548      H1560   1.111       .  S
C1548      H1561   1.110       .  S
C1550      C1551   1.402       .  A
C1550      C1555   1.507       .  S
C1551      C1552   1.405       .  A
C1551      H1556   1.085       .  S
C1552      C1553   1.417       .  A
C1553      C1554   1.403       .  A
C1553      C1557   1.506       .  S
C1554      H1558   1.085       .  S
C1555      H1565   1.111       .  S
C1555      H1566   1.110       .  S
C1555      H1567   1.110       .  S
C1557      H1568   1.111       .  S
C1557      H1569   1.105       .  S
C1557      H1570   1.110       .  S
C1571      C1572   1.400       .  A
C1571      C1576   1.403       .  A
C1571      H1581   1.085       .  S
C1572      C1577   1.478       .  S
C1572      C1573   1.409       .  A
C1573      C1574   1.403       .  A
C1573      C1578   1.506       .  S
C1574      C1575   1.406       .  A
C1574      H1579   1.084       .  S
C1575      C1576   1.419       .  A
C1576      C1580   1.509       .  S
C1577      C1582   1.410       .  A
C1577      C1586   1.399       .  A
C1578      H1594   1.110       .  S
C1578      H1595   1.110       .  S
C1578      H1596   1.111       .  S
C1580      H1591   1.110       .  S
C1580      H1592   1.111       .  S
C1580      H1593   1.105       .  S
C1582      C1583   1.405       .  A
C1582      C1587   1.506       .  S
C1583      C1584   1.404       .  A
C1583      H1588   1.084       .  S
C1584      C1585   1.418       .  A
C1585      C1586   1.401       .  A
C1585      C1589   1.508       .  S
C1586      H1590   1.084       .  S
C1587      H1597   1.111       .  S
C1587      H1598   1.110       .  S
C1587      H1599   1.110       .  S
C1589      H1600   1.111       .  S
C1589      H1601   1.106       .  S
C1589      H1602   1.110       .  S
C1603      C1604   1.400       .  A
C1603      C1608   1.402       .  A
C1603      H1613   1.085       .  S
C1604      C1609   1.478       .  S
C1604      C1605   1.410       .  A
C1605      C1606   1.403       .  A
C1605      C1610   1.507       .  S
C1606      C1607   1.405       .  A
C1606      H1611   1.084       .  S
C1607      C1608   1.416       .  A
C1608      C1612   1.505       .  S
C1609      C1614   1.408       .  A
C1609      C1618   1.401       .  A
C1610      H1626   1.110       .  S
C1610      H1627   1.109       .  S
C1610      H1628   1.111       .  S
C1612      H1623   1.111       .  S
C1612      H1624   1.110       .  S
C1612      H1625   1.106       .  S
C1614      C1615   1.401       .  A
C1614      C1619   1.507       .  S
C1615      C1616   1.405       .  A
C1615      H1620   1.084       .  S
C1616      C1617   1.418       .  A
C1617      C1618   1.404       .  A
C1617      C1621   1.508       .  S
C1618      H1622   1.085       .  S
C1619      H1629   1.111       .  S
C1619      H1630   1.110       .  S
C1619      H1631   1.109       .  S
C1621      H1632   1.110       .  S
C1621      H1633   1.107       .  S
C1621      H1634   1.111       .  S
C1635      C1636   1.402       .  A
C1635      C1640   1.404       .  A
C1635      H1645   1.084       .  S
C1636      C1641   1.481       .  S
C1636      C1637   1.411       .  A
C1637      C1638   1.401       .  A
C1637      C1642   1.507       .  S
C1638      C1639   1.404       .  A
C1638      H1643   1.084       .  S
C1639      C1640   1.417       .  A
C1640      C1644   1.508       .  S
C1641      C1646   1.411       .  A
C1641      C1650   1.400       .  A
C1642      H1658   1.109       .  S
C1642      H1659   1.110       .  S
C1642      H1660   1.111       .  S
C1644      H1655   1.110       .  S
C1644      H1656   1.111       .  S
C1644      H1657   1.106       .  S
C1646      C1647   1.404       .  A
C1646      C1651   1.506       .  S
C1647      C1648   1.405       .  A
C1647      H1652   1.082       .  S
C1648      C1649   1.420       .  A
C1649      C1650   1.402       .  A
C1649      C1653   1.508       .  S
C1650      H1654   1.083       .  S
C1651      H1661   1.110       .  S
C1651      H1662   1.110       .  S
C1651      H1663   1.110       .  S
C1653      H1664   1.111       .  S
C1653      H1665   1.110       .  S
C1653      H1666   1.110       .  S
C1667      C1668   1.400       .  A
C1667      C1672   1.403       .  A
C1667      H1677   1.084       .  S
C1668      C1673   1.480       .  S
C1668      C1669   1.410       .  A
C1669      C1670   1.403       .  A
C1669      C1674   1.506       .  S
C1670      C1671   1.405       .  A
C1670      H1675   1.084       .  S
C1671      C1672   1.415       .  A
C1672      C1676   1.505       .  S
C1673      C1678   1.409       .  A
C1673      C1682   1.401       .  A
C1674      H1690   1.110       .  S
C1674      H1691   1.110       .  S
C1674      H1692   1.111       .  S
C1676      H1687   1.110       .  S
C1676      H1688   1.110       .  S
C1676      H1689   1.107       .  S
C1678      C1679   1.402       .  A
C1678      C1683   1.507       .  S
C1679      C1680   1.405       .  A
C1679      H1684   1.085       .  S
C1680      C1681   1.417       .  A
C1681      C1682   1.404       .  A
C1681      C1685   1.508       .  S
C1682      H1686   1.085       .  S
C1683      H1693   1.111       .  S
C1683      H1694   1.110       .  S
C1683      H1695   1.110       .  S
C1685      H1696   1.110       .  S
C1685      H1697   1.107       .  S
C1685      H1698   1.110       .  S
C1699      C1700   1.398       .  A
C1699      C1704   1.402       .  A
C1699      H1709   1.085       .  S
C1700      C1705   1.476       .  S
C1700      C1701   1.408       .  A
C1701      C1702   1.403       .  A
C1701      C1706   1.506       .  S
C1702      C1703   1.407       .  A
C1702      H1707   1.085       .  S
C1703      C1704   1.418       .  A
C1704      C1708   1.505       .  S
C1705      C1710   1.410       .  A
C1705      C1714   1.399       .  A
C1706      H1722   1.110       .  S
C1706      H1723   1.110       .  S
C1706      H1724   1.111       .  S
C1708      H1719   1.109       .  S
C1708      H1720   1.111       .  S
C1708      H1721   1.110       .  S
C1710      C1711   1.403       .  A
C1710      C1715   1.506       .  S
C1711      C1712   1.402       .  A
C1711      H1716   1.084       .  S
C1712      C1713   1.417       .  A
C1713      C1714   1.401       .  A
C1713      C1717   1.509       .  S
C1714      H1718   1.083       .  S
C1715      H1725   1.111       .  S
C1715      H1726   1.110       .  S
C1715      H1727   1.110       .  S
C1717      H1728   1.111       .  S
C1717      H1729   1.105       .  S
C1717      H1730   1.111       .  S
N1731      N1732   1.320       .  A
N1731      N1737   1.315       .  A
N1732      C1739   1.352       .  A
N1733      N1735   1.316       .  A
N1733      N1734   1.320       .  A
N1733     Mn2095   2.201   1_545  S
N1734      C1740   1.353       .  A
N1735      N1736   1.320       .  A
N1736      C1740   1.353       .  A
N1737      N1738   1.320       .  A
N1738      C1739   1.354       .  A
C1739      C1953   1.477       .  S
C1740      C1985   1.476       .  S
N1741      N1747   1.315       .  A
N1741      N1742   1.319       .  A
N1742      C1750   1.353       .  A
N1743      N1744   1.319       .  A
N1743      N1745   1.315       .  A
N1743     Mn1749   2.200       .  S
N1744      C1751   1.352       .  A
N1745      N1746   1.320       .  A
N1746      C1751   1.354       .  A
N1747      N1748   1.320       .  A
N1747     Mn2441   2.201   1_545  S
N1748      C1750   1.354       .  A
Mn1749     N2079   2.201       .  S
Mn1749     N2439   2.201       .  S
C1750      C1921   1.479       .  S
C1751      C2049   1.484       .  S
N1752      N1753   1.320       .  A
N1752      N1758   1.316       .  A
N1752     Mn1760   2.201       .  S
N1753      C1761   1.352       .  A
N1754      N1756   1.316       .  A
N1754      N1755   1.320       .  A
N1754     Mn2118   2.202   1_556  S
N1755      C1762   1.352       .  A
N1756      N1757   1.321       .  A
N1756     Mn2452   2.206       .  S
N1757      C1762   1.354       .  A
N1758      N1759   1.320       .  A
N1759      C1761   1.353       .  A
Mn1760     N2448   2.206   1_545  S
C1761      C1857   1.481       .  S
C1762      C2026   1.477       .  S
N1763      N1764   1.322       .  A
N1763      N1769   1.315       .  A
N1763     Mn2463   2.207       .  S
N1764      C1774   1.356       .  A
N1765      N1766   1.322       .  A
N1765      N1767   1.316       .  A
N1765     Mn1772   2.208       .  S
N1766      C1775   1.356       .  A
N1767      N1768   1.318       .  A
N1767     Mn1771   2.196   1_545  S
N1768      C1775   1.351       .  A
N1769      N1770   1.319       .  A
N1769     Mn2464   2.196       .  S
N1770      C1774   1.351       .  A
Mn1771     N2455   2.207       .  S
Mn1771    Cl1773   2.546   1_565  S
Mn1772     N2100   2.202   1_545  S
Mn1772     N2461   2.196   1_545  S
Mn1772    Cl1773   2.546       .  S
C1774      C1889   1.484       .  S
C1775      C1825   1.483       .  S
N1776      N1777   1.321       .  A
N1776      N1782   1.315       .  A
N1776     Mn1805   2.202       .  S
N1777      C1784   1.353       .  A
N1778      N1780   1.316       .  A
N1778      N1779   1.321       .  A
N1778     Mn1794   2.202       .  S
N1779      C1785   1.352       .  A
N1780      N1781   1.320       .  A
N1780     Mn1805   2.205       .  S
N1781      C1785   1.353       .  A
N1782      N1783   1.318       .  A
N1782     Mn1794   2.192       .  S
N1783      C1784   1.350       .  A
C1784      C2058   1.471       .  S
C1785      C1930   1.476       .  S
N1786      N1792   1.315       .  A
N1786      N1787   1.322       .  A
N1786     Mn1816   2.208       .  S
N1787      C1795   1.355       .  A
N1788      N1789   1.319       .  A
N1788      N1790   1.315       .  A
N1788     Mn1794   2.198       .  S
N1789      C1796   1.353       .  A
N1790      N1791   1.321       .  A
N1790     Mn1816   2.204       .  S
N1791      C1796   1.354       .  A
N1792      N1793   1.318       .  A
N1792     Mn1794   2.193       .  S
N1793      C1795   1.351       .  A
Mn1794    Cl1818   2.542       .  S
C1795      C1994   1.483       .  S
C1796      C1962   1.478       .  S
N1797      N1798   1.320       .  A
N1797      N1803   1.316       .  A
N1797     Mn1805   2.204       .  S
N1798      C1806   1.353       .  A
N1799      N1801   1.315       .  A
N1799      N1800   1.321       .  A
N1799     Mn1817   2.200       .  S
N1800      C1807   1.354       .  A
N1801      N1802   1.320       .  A
N1801     Mn1805   2.201       .  S
N1802      C1807   1.353       .  A
N1803      N1804   1.321       .  A
N1803     Mn1817   2.206       .  S
N1804      C1806   1.354       .  A
Mn1805    Cl1818   2.547       .  S
C1806      C1834   1.484       .  S
C1807      C1898   1.479       .  S
N1808      N1809   1.320       .  A
N1808      N1814   1.316       .  A
N1808     Mn1816   2.198       .  S
N1809      C1819   1.352       .  A
N1810      N1811   1.319       .  A
N1810      N1812   1.317       .  A
N1810     Mn1817   2.200       .  S
N1811      C1820   1.351       .  A
N1812      N1813   1.321       .  A
N1812     Mn1816   2.206       .  S
N1813      C1820   1.353       .  A
N1814      N1815   1.321       .  A
N1814     Mn1817   2.206       .  S
N1815      C1819   1.354       .  A
Mn1816    Cl1818   2.550       .  S
Mn1817    Cl1818   2.545       .  S
C1819      C2017   1.476       .  S
C1820      C1866   1.476       .  S
C1821      C1822   1.400       .  A
C1821      C1826   1.403       .  A
C1821      H1831   1.084       .  S
C1822      C1827   1.484       .  S
C1822      C1823   1.412       .  A
C1823      C1824   1.404       .  A
C1823      C1828   1.507       .  S
C1824      C1825   1.404       .  A
C1824      H1829   1.086       .  S
C1825      C1826   1.419       .  A
C1826      C1830   1.508       .  S
C1827      C1832   1.411       .  A
C1827      C1836   1.401       .  A
C1828      H1844   1.108       .  S
C1828      H1845   1.110       .  S
C1828      H1846   1.112       .  S
C1830      H1841   1.111       .  S
C1830      H1842   1.109       .  S
C1830      H1843   1.111       .  S
C1832      C1833   1.404       .  A
C1832      C1837   1.507       .  S
C1833      C1834   1.406       .  A
C1833      H1838   1.083       .  S
C1834      C1835   1.417       .  A
C1835      C1836   1.404       .  A
C1835      C1839   1.507       .  S
C1836      H1840   1.086       .  S
C1837      H1847   1.110       .  S
C1837      H1848   1.110       .  S
C1837      H1849   1.111       .  S
C1839      H1850   1.113       .  S
C1839      H1851   1.110       .  S
C1839      H1852   1.108       .  S
C1853      C1854   1.398       .  A
C1853      C1858   1.402       .  A
C1853      H1863   1.085       .  S
C1854      C1859   1.478       .  S
C1854      C1855   1.409       .  A
C1855      C1856   1.403       .  A
C1855      C1860   1.506       .  S
C1856      C1857   1.405       .  A
C1856      H1861   1.084       .  S
C1857      C1858   1.422       .  A
C1858      C1862   1.509       .  S
C1859      C1864   1.410       .  A
C1859      C1868   1.398       .  A
C1860      H1876   1.111       .  S
C1860      H1877   1.110       .  S
C1860      H1878   1.110       .  S
C1862      H1873   1.111       .  S
C1862      H1874   1.110       .  S
C1862      H1875   1.103       .  S
C1864      C1865   1.404       .  A
C1864      C1869   1.506       .  S
C1865      C1866   1.403       .  A
C1865      H1870   1.084       .  S
C1866      C1867   1.419       .  A
C1867      C1868   1.402       .  A
C1867      C1871   1.509       .  S
C1868      H1872   1.085       .  S
C1869      H1879   1.111       .  S
C1869      H1880   1.110       .  S
C1869      H1881   1.109       .  S
C1871      H1882   1.110       .  S
C1871      H1883   1.105       .  S
C1871      H1884   1.111       .  S
C1885      C1886   1.399       .  A
C1885      C1890   1.404       .  A
C1885      H1895   1.083       .  S
C1886      C1891   1.480       .  S
C1886      C1887   1.410       .  A
C1887      C1888   1.404       .  A
C1887      C1892   1.506       .  S
C1888      C1889   1.405       .  A
C1888      H1893   1.084       .  S
C1889      C1890   1.420       .  A
C1890      C1894   1.508       .  S
C1891      C1896   1.409       .  A
C1891      C1900   1.401       .  A
C1892      H1908   1.110       .  S
C1892      H1909   1.111       .  S
C1892      H1910   1.111       .  S
C1894      H1905   1.111       .  S
C1894      H1906   1.111       .  S
C1894      H1907   1.110       .  S
C1896      C1897   1.402       .  A
C1896      C1901   1.507       .  S
C1897      C1898   1.405       .  A
C1897      H1902   1.085       .  S
C1898      C1899   1.417       .  A
C1899      C1900   1.403       .  A
C1899      C1903   1.506       .  S
C1900      H1904   1.085       .  S
C1901      H1911   1.111       .  S
C1901      H1912   1.110       .  S
C1901      H1913   1.110       .  S
C1903      H1914   1.111       .  S
C1903      H1915   1.105       .  S
C1903      H1916   1.110       .  S
C1917      C1918   1.400       .  A
C1917      C1922   1.403       .  A
C1917      H1927   1.085       .  S
C1918      C1923   1.478       .  S
C1918      C1919   1.409       .  A
C1919      C1920   1.403       .  A
C1919      C1924   1.506       .  S
C1920      C1921   1.406       .  A
C1920      H1925   1.084       .  S
C1921      C1922   1.419       .  A
C1922      C1926   1.509       .  S
C1923      C1928   1.410       .  A
C1923      C1932   1.399       .  A
C1924      H1940   1.110       .  S
C1924      H1941   1.110       .  S
C1924      H1942   1.111       .  S
C1926      H1937   1.110       .  S
C1926      H1938   1.111       .  S
C1926      H1939   1.105       .  S
C1928      C1929   1.405       .  A
C1928      C1933   1.506       .  S
C1929      C1930   1.404       .  A
C1929      H1934   1.084       .  S
C1930      C1931   1.418       .  A
C1931      C1932   1.401       .  A
C1931      C1935   1.508       .  S
C1932      H1936   1.084       .  S
C1933      H1943   1.111       .  S
C1933      H1944   1.110       .  S
C1933      H1945   1.110       .  S
C1935      H1946   1.111       .  S
C1935      H1947   1.106       .  S
C1935      H1948   1.110       .  S
C1949      C1950   1.400       .  A
C1949      C1954   1.402       .  A
C1949      H1959   1.085       .  S
C1950      C1955   1.478       .  S
C1950      C1951   1.410       .  A
C1951      C1952   1.403       .  A
C1951      C1956   1.507       .  S
C1952      C1953   1.405       .  A
C1952      H1957   1.084       .  S
C1953      C1954   1.416       .  A
C1954      C1958   1.505       .  S
C1955      C1960   1.408       .  A
C1955      C1964   1.401       .  A
C1956      H1972   1.110       .  S
C1956      H1973   1.109       .  S
C1956      H1974   1.111       .  S
C1958      H1969   1.111       .  S
C1958      H1970   1.110       .  S
C1958      H1971   1.106       .  S
C1960      C1961   1.401       .  A
C1960      C1965   1.507       .  S
C1961      C1962   1.405       .  A
C1961      H1966   1.084       .  S
C1962      C1963   1.418       .  A
C1963      C1964   1.404       .  A
C1963      C1967   1.508       .  S
C1964      H1968   1.085       .  S
C1965      H1975   1.111       .  S
C1965      H1976   1.110       .  S
C1965      H1977   1.109       .  S
C1967      H1978   1.110       .  S
C1967      H1979   1.107       .  S
C1967      H1980   1.111       .  S
C1981      C1982   1.402       .  A
C1981      C1986   1.404       .  A
C1981      H1991   1.084       .  S
C1982      C1987   1.481       .  S
C1982      C1983   1.411       .  A
C1983      C1984   1.401       .  A
C1983      C1988   1.507       .  S
C1984      C1985   1.404       .  A
C1984      H1989   1.084       .  S
C1985      C1986   1.417       .  A
C1986      C1990   1.508       .  S
C1987      C1992   1.411       .  A
C1987      C1996   1.400       .  A
C1988      H2004   1.109       .  S
C1988      H2005   1.110       .  S
C1988      H2006   1.111       .  S
C1990      H2001   1.110       .  S
C1990      H2002   1.111       .  S
C1990      H2003   1.106       .  S
C1992      C1993   1.404       .  A
C1992      C1997   1.506       .  S
C1993      C1994   1.405       .  A
C1993      H1998   1.082       .  S
C1994      C1995   1.420       .  A
C1995      C1996   1.402       .  A
C1995      C1999   1.508       .  S
C1996      H2000   1.083       .  S
C1997      H2007   1.110       .  S
C1997      H2008   1.110       .  S
C1997      H2009   1.110       .  S
C1999      H2010   1.111       .  S
C1999      H2011   1.110       .  S
C1999      H2012   1.110       .  S
C2013      C2014   1.400       .  A
C2013      C2018   1.403       .  A
C2013      H2023   1.084       .  S
C2014      C2019   1.480       .  S
C2014      C2015   1.410       .  A
C2015      C2016   1.403       .  A
C2015      C2020   1.506       .  S
C2016      C2017   1.405       .  A
C2016      H2021   1.084       .  S
C2017      C2018   1.415       .  A
C2018      C2022   1.505       .  S
C2019      C2024   1.409       .  A
C2019      C2028   1.401       .  A
C2020      H2036   1.110       .  S
C2020      H2037   1.110       .  S
C2020      H2038   1.111       .  S
C2022      H2033   1.110       .  S
C2022      H2034   1.110       .  S
C2022      H2035   1.107       .  S
C2024      C2025   1.402       .  A
C2024      C2029   1.507       .  S
C2025      C2026   1.405       .  A
C2025      H2030   1.085       .  S
C2026      C2027   1.417       .  A
C2027      C2028   1.404       .  A
C2027      C2031   1.508       .  S
C2028      H2032   1.085       .  S
C2029      H2039   1.111       .  S
C2029      H2040   1.110       .  S
C2029      H2041   1.110       .  S
C2031      H2042   1.110       .  S
C2031      H2043   1.107       .  S
C2031      H2044   1.110       .  S
C2045      C2046   1.398       .  A
C2045      C2050   1.402       .  A
C2045      H2055   1.085       .  S
C2046      C2051   1.476       .  S
C2046      C2047   1.408       .  A
C2047      C2048   1.403       .  A
C2047      C2052   1.506       .  S
C2048      C2049   1.407       .  A
C2048      H2053   1.085       .  S
C2049      C2050   1.418       .  A
C2050      C2054   1.505       .  S
C2051      C2056   1.410       .  A
C2051      C2060   1.399       .  A
C2052      H2068   1.110       .  S
C2052      H2069   1.110       .  S
C2052      H2070   1.111       .  S
C2054      H2065   1.109       .  S
C2054      H2066   1.111       .  S
C2054      H2067   1.110       .  S
C2056      C2057   1.403       .  A
C2056      C2061   1.506       .  S
C2057      C2058   1.402       .  A
C2057      H2062   1.084       .  S
C2058      C2059   1.417       .  A
C2059      C2060   1.401       .  A
C2059      C2063   1.509       .  S
C2060      H2064   1.083       .  S
C2061      H2071   1.111       .  S
C2061      H2072   1.110       .  S
C2061      H2073   1.110       .  S
C2063      H2074   1.111       .  S
C2063      H2075   1.106       .  S
C2063      H2076   1.111       .  S
N2077      N2078   1.320       .  A
N2077      N2083   1.315       .  A
N2078      C2085   1.352       .  A
N2079      N2081   1.316       .  A
N2079      N2080   1.320       .  A
N2080      C2086   1.353       .  A
N2081      N2082   1.320       .  A
N2082      C2086   1.353       .  A
N2083      N2084   1.320       .  A
N2083     Mn2441   2.203       .  S
N2084      C2085   1.354       .  A
C2085      C2299   1.477       .  S
C2086      C2331   1.476       .  S
N2087      N2093   1.315       .  A
N2087      N2088   1.319       .  A
N2088      C2096   1.353       .  A
N2089      N2090   1.319       .  A
N2089      N2091   1.315       .  A
N2089     Mn2095   2.200   1_554  S
N2090      C2097   1.352       .  A
N2091      N2092   1.320       .  A
N2092      C2097   1.354       .  A
N2093      N2094   1.320       .  A
N2094      C2096   1.354       .  A
Mn2095     N2429   2.203       .  S
C2096      C2267   1.479       .  S
C2097      C2395   1.484       .  S
N2098      N2099   1.320       .  A
N2098      N2104   1.316       .  A
N2098     Mn2106   2.201       .  S
N2099      C2107   1.352       .  A
N2100      N2102   1.316       .  A
N2100      N2101   1.320       .  A
N2101      C2108   1.352       .  A
N2102      N2103   1.321       .  A
N2103      C2108   1.354       .  A
N2104      N2105   1.320       .  A
N2104     Mn2464   2.199       .  S
N2105      C2107   1.353       .  A
Mn2106    Cl2465   2.546       .  S
C2107      C2203   1.481       .  S
C2108      C2372   1.477       .  S
N2109      N2110   1.322       .  A
N2109      N2115   1.315       .  A
N2110      C2120   1.356       .  A
N2111      N2112   1.322       .  A
N2111      N2113   1.316       .  A
N2111     Mn2118   2.208       .  S
N2112      C2121   1.356       .  A
N2113      N2114   1.318       .  A
N2113     Mn2117   2.196       .  S
N2114      C2121   1.351       .  A
N2115      N2116   1.319       .  A
N2116      C2120   1.351       .  A
Mn2117    Cl2119   2.546   1_554  S
Mn2118     N2450   2.199   1_554  S
Mn2118    Cl2119   2.546   1_554  S
Cl2119    Mn2452   2.546       .  S
C2120      C2235   1.484       .  S
C2121      C2171   1.483       .  S
N2122      N2123   1.321       .  A
N2122      N2128   1.315       .  A
N2122     Mn2151   2.202       .  S
N2123      C2130   1.353       .  A
N2124      N2126   1.316       .  A
N2124      N2125   1.321       .  A
N2124     Mn2140   2.202       .  S
N2125      C2131   1.352       .  A
N2126      N2127   1.320       .  A
N2126     Mn2151   2.205       .  S
N2127      C2131   1.353       .  A
N2128      N2129   1.318       .  A
N2128     Mn2140   2.192       .  S
N2129      C2130   1.350       .  A
C2130      C2404   1.471       .  S
C2131      C2276   1.476       .  S
N2132      N2138   1.315       .  A
N2132      N2133   1.322       .  A
N2132     Mn2162   2.208       .  S
N2133      C2141   1.355       .  A
N2134      N2135   1.319       .  A
N2134      N2136   1.315       .  A
N2134     Mn2140   2.198       .  S
N2135      C2142   1.353       .  A
N2136      N2137   1.321       .  A
N2136     Mn2162   2.204       .  S
N2137      C2142   1.354       .  A
N2138      N2139   1.318       .  A
N2138     Mn2140   2.193       .  S
N2139      C2141   1.351       .  A
Mn2140    Cl2164   2.542       .  S
C2141      C2340   1.483       .  S
C2142      C2308   1.478       .  S
N2143      N2144   1.320       .  A
N2143      N2149   1.316       .  A
N2143     Mn2151   2.204       .  S
N2144      C2152   1.353       .  A
N2145      N2147   1.315       .  A
N2145      N2146   1.321       .  A
N2145     Mn2163   2.200       .  S
N2146      C2153   1.354       .  A
N2147      N2148   1.320       .  A
N2147     Mn2151   2.201       .  S
N2148      C2153   1.353       .  A
N2149      N2150   1.321       .  A
N2149     Mn2163   2.206       .  S
N2150      C2152   1.354       .  A
Mn2151    Cl2164   2.547       .  S
C2152      C2180   1.484       .  S
C2153      C2244   1.479       .  S
N2154      N2155   1.320       .  A
N2154      N2160   1.316       .  A
N2154     Mn2162   2.198       .  S
N2155      C2165   1.352       .  A
N2156      N2157   1.319       .  A
N2156      N2158   1.317       .  A
N2156     Mn2163   2.200       .  S
N2157      C2166   1.351       .  A
N2158      N2159   1.321       .  A
N2158     Mn2162   2.206       .  S
N2159      C2166   1.353       .  A
N2160      N2161   1.321       .  A
N2160     Mn2163   2.206       .  S
N2161      C2165   1.354       .  A
Mn2162    Cl2164   2.550       .  S
Mn2163    Cl2164   2.545       .  S
C2165      C2363   1.476       .  S
C2166      C2212   1.476       .  S
C2167      C2168   1.400       .  A
C2167      C2172   1.403       .  A
C2167      H2177   1.084       .  S
C2168      C2173   1.484       .  S
C2168      C2169   1.412       .  A
C2169      C2170   1.404       .  A
C2169      C2174   1.507       .  S
C2170      C2171   1.404       .  A
C2170      H2175   1.086       .  S
C2171      C2172   1.419       .  A
C2172      C2176   1.508       .  S
C2173      C2178   1.411       .  A
C2173      C2182   1.401       .  A
C2174      H2190   1.108       .  S
C2174      H2191   1.110       .  S
C2174      H2192   1.112       .  S
C2176      H2187   1.111       .  S
C2176      H2188   1.109       .  S
C2176      H2189   1.111       .  S
C2178      C2179   1.404       .  A
C2178      C2183   1.507       .  S
C2179      C2180   1.406       .  A
C2179      H2184   1.083       .  S
C2180      C2181   1.417       .  A
C2181      C2182   1.404       .  A
C2181      C2185   1.507       .  S
C2182      H2186   1.086       .  S
C2183      H2193   1.110       .  S
C2183      H2194   1.110       .  S
C2183      H2195   1.111       .  S
C2185      H2196   1.113       .  S
C2185      H2197   1.110       .  S
C2185      H2198   1.108       .  S
C2199      C2200   1.398       .  A
C2199      C2204   1.402       .  A
C2199      H2209   1.085       .  S
C2200      C2205   1.478       .  S
C2200      C2201   1.409       .  A
C2201      C2202   1.403       .  A
C2201      C2206   1.506       .  S
C2202      C2203   1.405       .  A
C2202      H2207   1.084       .  S
C2203      C2204   1.422       .  A
C2204      C2208   1.509       .  S
C2205      C2210   1.410       .  A
C2205      C2214   1.398       .  A
C2206      H2222   1.111       .  S
C2206      H2223   1.110       .  S
C2206      H2224   1.110       .  S
C2208      H2219   1.111       .  S
C2208      H2220   1.110       .  S
C2208      H2221   1.103       .  S
C2210      C2211   1.404       .  A
C2210      C2215   1.506       .  S
C2211      C2212   1.403       .  A
C2211      H2216   1.084       .  S
C2212      C2213   1.419       .  A
C2213      C2214   1.402       .  A
C2213      C2217   1.509       .  S
C2214      H2218   1.085       .  S
C2215      H2225   1.111       .  S
C2215      H2226   1.110       .  S
C2215      H2227   1.109       .  S
C2217      H2228   1.110       .  S
C2217      H2229   1.105       .  S
C2217      H2230   1.111       .  S
C2231      C2232   1.399       .  A
C2231      C2236   1.404       .  A
C2231      H2241   1.083       .  S
C2232      C2237   1.480       .  S
C2232      C2233   1.410       .  A
C2233      C2234   1.404       .  A
C2233      C2238   1.506       .  S
C2234      C2235   1.405       .  A
C2234      H2239   1.084       .  S
C2235      C2236   1.420       .  A
C2236      C2240   1.508       .  S
C2237      C2242   1.409       .  A
C2237      C2246   1.401       .  A
C2238      H2254   1.110       .  S
C2238      H2255   1.111       .  S
C2238      H2256   1.111       .  S
C2240      H2251   1.111       .  S
C2240      H2252   1.111       .  S
C2240      H2253   1.110       .  S
C2242      C2243   1.402       .  A
C2242      C2247   1.507       .  S
C2243      C2244   1.405       .  A
C2243      H2248   1.085       .  S
C2244      C2245   1.417       .  A
C2245      C2246   1.403       .  A
C2245      C2249   1.506       .  S
C2246      H2250   1.085       .  S
C2247      H2257   1.111       .  S
C2247      H2258   1.110       .  S
C2247      H2259   1.110       .  S
C2249      H2260   1.111       .  S
C2249      H2261   1.105       .  S
C2249      H2262   1.110       .  S
C2263      C2264   1.400       .  A
C2263      C2268   1.403       .  A
C2263      H2273   1.085       .  S
C2264      C2269   1.478       .  S
C2264      C2265   1.409       .  A
C2265      C2266   1.403       .  A
C2265      C2270   1.506       .  S
C2266      C2267   1.406       .  A
C2266      H2271   1.084       .  S
C2267      C2268   1.419       .  A
C2268      C2272   1.509       .  S
C2269      C2274   1.410       .  A
C2269      C2278   1.399       .  A
C2270      H2286   1.110       .  S
C2270      H2287   1.110       .  S
C2270      H2288   1.111       .  S
C2272      H2283   1.110       .  S
C2272      H2284   1.111       .  S
C2272      H2285   1.105       .  S
C2274      C2275   1.405       .  A
C2274      C2279   1.506       .  S
C2275      C2276   1.404       .  A
C2275      H2280   1.084       .  S
C2276      C2277   1.418       .  A
C2277      C2278   1.401       .  A
C2277      C2281   1.508       .  S
C2278      H2282   1.084       .  S
C2279      H2289   1.111       .  S
C2279      H2290   1.110       .  S
C2279      H2291   1.110       .  S
C2281      H2292   1.111       .  S
C2281      H2293   1.106       .  S
C2281      H2294   1.110       .  S
C2295      C2296   1.400       .  A
C2295      C2300   1.402       .  A
C2295      H2305   1.085       .  S
C2296      C2301   1.478       .  S
C2296      C2297   1.410       .  A
C2297      C2298   1.403       .  A
C2297      C2302   1.507       .  S
C2298      C2299   1.405       .  A
C2298      H2303   1.084       .  S
C2299      C2300   1.416       .  A
C2300      C2304   1.505       .  S
C2301      C2306   1.408       .  A
C2301      C2310   1.401       .  A
C2302      H2318   1.110       .  S
C2302      H2319   1.109       .  S
C2302      H2320   1.111       .  S
C2304      H2315   1.111       .  S
C2304      H2316   1.110       .  S
C2304      H2317   1.106       .  S
C2306      C2307   1.401       .  A
C2306      C2311   1.507       .  S
C2307      C2308   1.405       .  A
C2307      H2312   1.084       .  S
C2308      C2309   1.418       .  A
C2309      C2310   1.404       .  A
C2309      C2313   1.508       .  S
C2310      H2314   1.085       .  S
C2311      H2321   1.111       .  S
C2311      H2322   1.110       .  S
C2311      H2323   1.109       .  S
C2313      H2324   1.110       .  S
C2313      H2325   1.107       .  S
C2313      H2326   1.111       .  S
C2327      C2328   1.402       .  A
C2327      C2332   1.404       .  A
C2327      H2337   1.084       .  S
C2328      C2333   1.481       .  S
C2328      C2329   1.411       .  A
C2329      C2330   1.401       .  A
C2329      C2334   1.507       .  S
C2330      C2331   1.404       .  A
C2330      H2335   1.084       .  S
C2331      C2332   1.417       .  A
C2332      C2336   1.508       .  S
C2333      C2338   1.411       .  A
C2333      C2342   1.400       .  A
C2334      H2350   1.109       .  S
C2334      H2351   1.110       .  S
C2334      H2352   1.111       .  S
C2336      H2347   1.110       .  S
C2336      H2348   1.111       .  S
C2336      H2349   1.106       .  S
C2338      C2339   1.404       .  A
C2338      C2343   1.506       .  S
C2339      C2340   1.405       .  A
C2339      H2344   1.082       .  S
C2340      C2341   1.420       .  A
C2341      C2342   1.402       .  A
C2341      C2345   1.508       .  S
C2342      H2346   1.083       .  S
C2343      H2353   1.110       .  S
C2343      H2354   1.110       .  S
C2343      H2355   1.110       .  S
C2345      H2356   1.111       .  S
C2345      H2357   1.110       .  S
C2345      H2358   1.110       .  S
C2359      C2360   1.400       .  A
C2359      C2364   1.403       .  A
C2359      H2369   1.084       .  S
C2360      C2365   1.480       .  S
C2360      C2361   1.410       .  A
C2361      C2362   1.403       .  A
C2361      C2366   1.506       .  S
C2362      C2363   1.405       .  A
C2362      H2367   1.084       .  S
C2363      C2364   1.415       .  A
C2364      C2368   1.505       .  S
C2365      C2370   1.409       .  A
C2365      C2374   1.401       .  A
C2366      H2382   1.110       .  S
C2366      H2383   1.110       .  S
C2366      H2384   1.111       .  S
C2368      H2379   1.110       .  S
C2368      H2380   1.110       .  S
C2368      H2381   1.107       .  S
C2370      C2371   1.402       .  A
C2370      C2375   1.507       .  S
C2371      C2372   1.405       .  A
C2371      H2376   1.085       .  S
C2372      C2373   1.417       .  A
C2373      C2374   1.404       .  A
C2373      C2377   1.508       .  S
C2374      H2378   1.085       .  S
C2375      H2385   1.111       .  S
C2375      H2386   1.110       .  S
C2375      H2387   1.110       .  S
C2377      H2388   1.110       .  S
C2377      H2389   1.107       .  S
C2377      H2390   1.110       .  S
C2391      C2392   1.398       .  A
C2391      C2396   1.402       .  A
C2391      H2401   1.085       .  S
C2392      C2397   1.476       .  S
C2392      C2393   1.408       .  A
C2393      C2394   1.403       .  A
C2393      C2398   1.506       .  S
C2394      C2395   1.407       .  A
C2394      H2399   1.085       .  S
C2395      C2396   1.418       .  A
C2396      C2400   1.505       .  S
C2397      C2402   1.410       .  A
C2397      C2406   1.399       .  A
C2398      H2414   1.110       .  S
C2398      H2415   1.110       .  S
C2398      H2416   1.111       .  S
C2400      H2411   1.109       .  S
C2400      H2412   1.111       .  S
C2400      H2413   1.110       .  S
C2402      C2403   1.403       .  A
C2402      C2407   1.506       .  S
C2403      C2404   1.402       .  A
C2403      H2408   1.084       .  S
C2404      C2405   1.417       .  A
C2405      C2406   1.401       .  A
C2405      C2409   1.509       .  S
C2406      H2410   1.083       .  S
C2407      H2417   1.111       .  S
C2407      H2418   1.110       .  S
C2407      H2419   1.110       .  S
C2409      H2420   1.111       .  S
C2409      H2421   1.105       .  S
C2409      H2422   1.111       .  S
N2423      N2424   1.320       .  A
N2423      N2429   1.315       .  A
N2424      C2431   1.352       .  A
N2425      N2427   1.316       .  A
N2425      N2426   1.320       .  A
N2426      C2432   1.353       .  A
N2427      N2428   1.320       .  A
N2428      C2432   1.353       .  A
N2429      N2430   1.320       .  A
N2430      C2431   1.354       .  A
C2431      C2645   1.477       .  S
C2432      C2677   1.476       .  S
N2433      N2439   1.315       .  A
N2433      N2434   1.319       .  A
N2434      C2442   1.353       .  A
N2435      N2436   1.319       .  A
N2435      N2437   1.315       .  A
N2435     Mn2441   2.200       .  S
N2436      C2443   1.352       .  A
N2437      N2438   1.320       .  A
N2438      C2443   1.354       .  A
N2439      N2440   1.320       .  A
N2440      C2442   1.354       .  A
C2442      C2613   1.479       .  S
C2443      C2741   1.484       .  S
N2444      N2445   1.320       .  A
N2444      N2450   1.316       .  A
N2444     Mn2452   2.201       .  S
N2445      C2453   1.352       .  A
N2446      N2448   1.316       .  A
N2446      N2447   1.320       .  A
N2447      C2454   1.352       .  A
N2448      N2449   1.321       .  A
N2449      C2454   1.354       .  A
N2450      N2451   1.320       .  A
N2451      C2453   1.353       .  A
C2453      C2549   1.481       .  S
C2454      C2718   1.477       .  S
N2455      N2456   1.322       .  A
N2455      N2461   1.315       .  A
N2456      C2466   1.356       .  A
N2457      N2458   1.322       .  A
N2457      N2459   1.316       .  A
N2457     Mn2464   2.208       .  S
N2458      C2467   1.356       .  A
N2459      N2460   1.318       .  A
N2459     Mn2463   2.196       .  S
N2460      C2467   1.351       .  A
N2461      N2462   1.319       .  A
N2462      C2466   1.351       .  A
Mn2463    Cl2465   2.546       .  S
Mn2464    Cl2465   2.546       .  S
C2466      C2581   1.484       .  S
C2467      C2517   1.483       .  S
N2468      N2469   1.321       .  A
N2468      N2474   1.315       .  A
N2468     Mn2497   2.202       .  S
N2469      C2476   1.353       .  A
N2470      N2472   1.316       .  A
N2470      N2471   1.321       .  A
N2470     Mn2486   2.202       .  S
N2471      C2477   1.352       .  A
N2472      N2473   1.320       .  A
N2472     Mn2497   2.205       .  S
N2473      C2477   1.353       .  A
N2474      N2475   1.318       .  A
N2474     Mn2486   2.192       .  S
N2475      C2476   1.350       .  A
C2476      C2750   1.471       .  S
C2477      C2622   1.476       .  S
N2478      N2484   1.315       .  A
N2478      N2479   1.322       .  A
N2478     Mn2508   2.208       .  S
N2479      C2487   1.355       .  A
N2480      N2481   1.319       .  A
N2480      N2482   1.315       .  A
N2480     Mn2486   2.198       .  S
N2481      C2488   1.353       .  A
N2482      N2483   1.321       .  A
N2482     Mn2508   2.204       .  S
N2483      C2488   1.354       .  A
N2484      N2485   1.318       .  A
N2484     Mn2486   2.193       .  S
N2485      C2487   1.351       .  A
Mn2486    Cl2510   2.542       .  S
C2487      C2686   1.483       .  S
C2488      C2654   1.478       .  S
N2489      N2490   1.320       .  A
N2489      N2495   1.316       .  A
N2489     Mn2497   2.204       .  S
N2490      C2498   1.353       .  A
N2491      N2493   1.315       .  A
N2491      N2492   1.321       .  A
N2491     Mn2509   2.200       .  S
N2492      C2499   1.354       .  A
N2493      N2494   1.320       .  A
N2493     Mn2497   2.201       .  S
N2494      C2499   1.353       .  A
N2495      N2496   1.321       .  A
N2495     Mn2509   2.206       .  S
N2496      C2498   1.354       .  A
Mn2497    Cl2510   2.547       .  S
C2498      C2526   1.484       .  S
C2499      C2590   1.479       .  S
N2500      N2501   1.320       .  A
N2500      N2506   1.316       .  A
N2500     Mn2508   2.198       .  S
N2501      C2511   1.352       .  A
N2502      N2503   1.319       .  A
N2502      N2504   1.317       .  A
N2502     Mn2509   2.200       .  S
N2503      C2512   1.351       .  A
N2504      N2505   1.321       .  A
N2504     Mn2508   2.206       .  S
N2505      C2512   1.353       .  A
N2506      N2507   1.321       .  A
N2506     Mn2509   2.206       .  S
N2507      C2511   1.354       .  A
Mn2508    Cl2510   2.550       .  S
Mn2509    Cl2510   2.545       .  S
C2511      C2709   1.476       .  S
C2512      C2558   1.476       .  S
C2513      C2514   1.400       .  A
C2513      C2518   1.403       .  A
C2513      H2523   1.084       .  S
C2514      C2519   1.484       .  S
C2514      C2515   1.412       .  A
C2515      C2516   1.404       .  A
C2515      C2520   1.507       .  S
C2516      C2517   1.404       .  A
C2516      H2521   1.086       .  S
C2517      C2518   1.419       .  A
C2518      C2522   1.508       .  S
C2519      C2524   1.411       .  A
C2519      C2528   1.401       .  A
C2520      H2536   1.108       .  S
C2520      H2537   1.110       .  S
C2520      H2538   1.112       .  S
C2522      H2533   1.111       .  S
C2522      H2534   1.109       .  S
C2522      H2535   1.111       .  S
C2524      C2525   1.404       .  A
C2524      C2529   1.507       .  S
C2525      C2526   1.406       .  A
C2525      H2530   1.083       .  S
C2526      C2527   1.417       .  A
C2527      C2528   1.404       .  A
C2527      C2531   1.507       .  S
C2528      H2532   1.086       .  S
C2529      H2539   1.110       .  S
C2529      H2540   1.110       .  S
C2529      H2541   1.111       .  S
C2531      H2542   1.113       .  S
C2531      H2543   1.110       .  S
C2531      H2544   1.108       .  S
C2545      C2546   1.398       .  A
C2545      C2550   1.402       .  A
C2545      H2555   1.085       .  S
C2546      C2551   1.478       .  S
C2546      C2547   1.409       .  A
C2547      C2548   1.403       .  A
C2547      C2552   1.506       .  S
C2548      C2549   1.405       .  A
C2548      H2553   1.084       .  S
C2549      C2550   1.422       .  A
C2550      C2554   1.509       .  S
C2551      C2556   1.410       .  A
C2551      C2560   1.398       .  A
C2552      H2568   1.111       .  S
C2552      H2569   1.110       .  S
C2552      H2570   1.110       .  S
C2554      H2565   1.111       .  S
C2554      H2566   1.110       .  S
C2554      H2567   1.103       .  S
C2556      C2557   1.404       .  A
C2556      C2561   1.506       .  S
C2557      C2558   1.403       .  A
C2557      H2562   1.084       .  S
C2558      C2559   1.419       .  A
C2559      C2560   1.402       .  A
C2559      C2563   1.509       .  S
C2560      H2564   1.085       .  S
C2561      H2571   1.111       .  S
C2561      H2572   1.110       .  S
C2561      H2573   1.109       .  S
C2563      H2574   1.110       .  S
C2563      H2575   1.105       .  S
C2563      H2576   1.111       .  S
C2577      C2578   1.399       .  A
C2577      C2582   1.404       .  A
C2577      H2587   1.083       .  S
C2578      C2583   1.480       .  S
C2578      C2579   1.410       .  A
C2579      C2580   1.404       .  A
C2579      C2584   1.506       .  S
C2580      C2581   1.405       .  A
C2580      H2585   1.084       .  S
C2581      C2582   1.420       .  A
C2582      C2586   1.508       .  S
C2583      C2588   1.409       .  A
C2583      C2592   1.401       .  A
C2584      H2600   1.110       .  S
C2584      H2601   1.111       .  S
C2584      H2602   1.111       .  S
C2586      H2597   1.111       .  S
C2586      H2598   1.111       .  S
C2586      H2599   1.110       .  S
C2588      C2589   1.402       .  A
C2588      C2593   1.507       .  S
C2589      C2590   1.405       .  A
C2589      H2594   1.085       .  S
C2590      C2591   1.417       .  A
C2591      C2592   1.403       .  A
C2591      C2595   1.506       .  S
C2592      H2596   1.085       .  S
C2593      H2603   1.111       .  S
C2593      H2604   1.110       .  S
C2593      H2605   1.110       .  S
C2595      H2606   1.111       .  S
C2595      H2607   1.105       .  S
C2595      H2608   1.110       .  S
C2609      C2610   1.400       .  A
C2609      C2614   1.403       .  A
C2609      H2619   1.085       .  S
C2610      C2615   1.478       .  S
C2610      C2611   1.409       .  A
C2611      C2612   1.403       .  A
C2611      C2616   1.506       .  S
C2612      C2613   1.406       .  A
C2612      H2617   1.084       .  S
C2613      C2614   1.419       .  A
C2614      C2618   1.509       .  S
C2615      C2620   1.410       .  A
C2615      C2624   1.399       .  A
C2616      H2632   1.110       .  S
C2616      H2633   1.110       .  S
C2616      H2634   1.111       .  S
C2618      H2629   1.110       .  S
C2618      H2630   1.111       .  S
C2618      H2631   1.105       .  S
C2620      C2621   1.405       .  A
C2620      C2625   1.506       .  S
C2621      C2622   1.404       .  A
C2621      H2626   1.084       .  S
C2622      C2623   1.418       .  A
C2623      C2624   1.401       .  A
C2623      C2627   1.508       .  S
C2624      H2628   1.084       .  S
C2625      H2635   1.111       .  S
C2625      H2636   1.110       .  S
C2625      H2637   1.110       .  S
C2627      H2638   1.111       .  S
C2627      H2639   1.106       .  S
C2627      H2640   1.110       .  S
C2641      C2642   1.400       .  A
C2641      C2646   1.402       .  A
C2641      H2651   1.085       .  S
C2642      C2647   1.478       .  S
C2642      C2643   1.410       .  A
C2643      C2644   1.403       .  A
C2643      C2648   1.507       .  S
C2644      C2645   1.405       .  A
C2644      H2649   1.084       .  S
C2645      C2646   1.416       .  A
C2646      C2650   1.505       .  S
C2647      C2652   1.408       .  A
C2647      C2656   1.401       .  A
C2648      H2664   1.110       .  S
C2648      H2665   1.109       .  S
C2648      H2666   1.111       .  S
C2650      H2661   1.111       .  S
C2650      H2662   1.110       .  S
C2650      H2663   1.106       .  S
C2652      C2653   1.401       .  A
C2652      C2657   1.507       .  S
C2653      C2654   1.405       .  A
C2653      H2658   1.084       .  S
C2654      C2655   1.418       .  A
C2655      C2656   1.404       .  A
C2655      C2659   1.508       .  S
C2656      H2660   1.085       .  S
C2657      H2667   1.111       .  S
C2657      H2668   1.110       .  S
C2657      H2669   1.109       .  S
C2659      H2670   1.110       .  S
C2659      H2671   1.107       .  S
C2659      H2672   1.111       .  S
C2673      C2674   1.402       .  A
C2673      C2678   1.404       .  A
C2673      H2683   1.084       .  S
C2674      C2679   1.481       .  S
C2674      C2675   1.411       .  A
C2675      C2676   1.401       .  A
C2675      C2680   1.507       .  S
C2676      C2677   1.404       .  A
C2676      H2681   1.084       .  S
C2677      C2678   1.417       .  A
C2678      C2682   1.508       .  S
C2679      C2684   1.411       .  A
C2679      C2688   1.400       .  A
C2680      H2696   1.109       .  S
C2680      H2697   1.110       .  S
C2680      H2698   1.111       .  S
C2682      H2693   1.110       .  S
C2682      H2694   1.111       .  S
C2682      H2695   1.106       .  S
C2684      C2685   1.404       .  A
C2684      C2689   1.506       .  S
C2685      C2686   1.405       .  A
C2685      H2690   1.082       .  S
C2686      C2687   1.420       .  A
C2687      C2688   1.402       .  A
C2687      C2691   1.508       .  S
C2688      H2692   1.083       .  S
C2689      H2699   1.110       .  S
C2689      H2700   1.110       .  S
C2689      H2701   1.110       .  S
C2691      H2702   1.111       .  S
C2691      H2703   1.110       .  S
C2691      H2704   1.110       .  S
C2705      C2706   1.400       .  A
C2705      C2710   1.403       .  A
C2705      H2715   1.084       .  S
C2706      C2711   1.480       .  S
C2706      C2707   1.410       .  A
C2707      C2708   1.403       .  A
C2707      C2712   1.506       .  S
C2708      C2709   1.405       .  A
C2708      H2713   1.084       .  S
C2709      C2710   1.415       .  A
C2710      C2714   1.505       .  S
C2711      C2716   1.409       .  A
C2711      C2720   1.401       .  A
C2712      H2728   1.110       .  S
C2712      H2729   1.110       .  S
C2712      H2730   1.111       .  S
C2714      H2725   1.110       .  S
C2714      H2726   1.110       .  S
C2714      H2727   1.106       .  S
C2716      C2717   1.402       .  A
C2716      C2721   1.507       .  S
C2717      C2718   1.405       .  A
C2717      H2722   1.085       .  S
C2718      C2719   1.417       .  A
C2719      C2720   1.404       .  A
C2719      C2723   1.508       .  S
C2720      H2724   1.085       .  S
C2721      H2731   1.111       .  S
C2721      H2732   1.110       .  S
C2721      H2733   1.110       .  S
C2723      H2734   1.110       .  S
C2723      H2735   1.107       .  S
C2723      H2736   1.110       .  S
C2737      C2738   1.398       .  A
C2737      C2742   1.402       .  A
C2737      H2747   1.085       .  S
C2738      C2743   1.476       .  S
C2738      C2739   1.408       .  A
C2739      C2740   1.403       .  A
C2739      C2744   1.506       .  S
C2740      C2741   1.407       .  A
C2740      H2745   1.085       .  S
C2741      C2742   1.418       .  A
C2742      C2746   1.505       .  S
C2743      C2748   1.410       .  A
C2743      C2752   1.399       .  A
C2744      H2760   1.110       .  S
C2744      H2761   1.110       .  S
C2744      H2762   1.111       .  S
C2746      H2757   1.109       .  S
C2746      H2758   1.111       .  S
C2746      H2759   1.110       .  S
C2748      C2749   1.403       .  A
C2748      C2753   1.506       .  S
C2749      C2750   1.402       .  A
C2749      H2754   1.084       .  S
C2750      C2751   1.417       .  A
C2751      C2752   1.401       .  A
C2751      C2755   1.509       .  S
C2752      H2756   1.083       .  S
C2753      H2763   1.111       .  S
C2753      H2764   1.110       .  S
C2753      H2765   1.110       .  S
C2755      H2766   1.111       .  S
C2755      H2767   1.105       .  S
C2755      H2768   1.111       .  S
