geometry optimzed in LAMMPS
_audit_creation_date              2020-11-30 
_audit_creation_method            'lammps2cif' 
_symmetry_space_group_name_H-M    'P1' 
_symmetry_Int_Tables_number       1 
_symmetry_cell_setting            triclinic 
loop_ 
_symmetry_equiv_pos_as_xyz 
  x,y,z 
_cell_length_a                    67.30414636 
_cell_length_b                    35.468583909409745 
_cell_length_c                    38.444818559940195 
_cell_angle_alpha                 90.18293546467501 
_cell_angle_beta                  89.93207357574245 
_cell_angle_gamma                 90.01304578620639 
loop_ 
_atom_site_label 
_atom_site_type_symbol 
_atom_site_fract_x 
_atom_site_fract_y 
_atom_site_fract_z 
_atom_site_charge 
C1          C  0.02819543  0.05381467  0.16880035     0.81200
N2          N  0.03848148  0.05586027  0.13830288    -0.77100
C3          C  0.05771209  0.06738997  0.13808014     0.83600
N4          N  0.06648694  0.07747258  0.16826174    -0.77100
C5          C  0.05633466  0.07688667  0.19870505     0.83700
N6          N  0.03707836  0.06486705  0.19912526    -0.78800
Zn7        Zn  0.84720146  0.83349038  0.11907251     1.49700
Zn8        Zn  0.88757758  0.79917373  0.08845045     1.49400
Zn9        Zn  0.88204556  0.88917301  0.09057351     1.49100
Zn10       Zn  0.88848467  0.84490965  0.16066846     1.49500
O11         O  0.87612536  0.84163601  0.11464904    -1.83200
O12         O  0.83834448  0.78509725  0.09319231    -0.73800
O13         O  0.90266914  0.81770499  0.04679008    -0.73600
O14         O  0.85671638  0.91762532  0.07967966    -0.73100
O15         O  0.86652428  0.76439377  0.06978517    -0.73800
O16         O  0.83287013  0.87794103  0.09654835    -0.73400
O17         O  0.89694095  0.87945708  0.04598988    -0.74000
O18         O  0.90667144  0.89053654  0.16633971    -0.73400
O19         O  0.90609559  0.76814159  0.11836493    -0.74100
O20         O  0.90129989  0.92183147  0.11737493    -0.73500
O21         O  0.90616290  0.80030475  0.16811700    -0.74000
O22         O  0.86760629  0.84327681  0.19826709    -0.73900
O23         O  0.83918009  0.83069260  0.17084187    -0.73700
C24         C  0.84783712  0.76169853  0.07403100     0.78100
C25         C  0.90472764  0.84998374  0.03290052     0.78600
C26         C  0.83840893  0.90888906  0.08260431     0.77600
C27         C  0.91041489  0.91802891  0.14611531     0.77900
C28         C  0.91193287  0.77262656  0.14959844     0.79100
C29         C  0.84906114  0.83603596  0.19885034     0.78100
N30         N  0.77220120  0.60377948  0.93515821    -0.02500
C31         C  0.75412895  0.58764007  0.94056884     0.00100
C32         C  0.74485273  0.58007525  0.90931908    -0.22800
C33         C  0.75775128  0.59111898  0.88362260    -0.23000
C34         C  0.77445632  0.60513129  0.90000914     0.00000
H35         H  0.73078553  0.56582949  0.90561429     0.13800
H36         H  0.75563185  0.58749636  0.85590721     0.13800
C37         C  0.00595409  0.55198267  0.29512471     0.81200
N38         N  0.99513302  0.55225233  0.32505136    -0.77100
C39         C  0.97983976  0.57666560  0.32919724     0.83600
N40         N  0.97538768  0.60087307  0.30337730    -0.77100
C41         C  0.98600197  0.60117655  0.27342731     0.83700
N42         N  0.00147020  0.57673282  0.26910508    -0.78800
Zn43       Zn  0.17057799  0.33885991  0.39567586     1.49700
Zn44       Zn  0.16091230  0.38028935  0.32433038     1.49400
Zn45       Zn  0.16822412  0.28875968  0.32649995     1.49100
Zn46       Zn  0.12916308  0.32553252  0.36062523     1.49500
O47         O  0.15731970  0.33333117  0.35112317    -1.83200
O48         O  0.19053219  0.38081663  0.39373966    -0.73800
O49         O  0.17099704  0.36536479  0.27646467    -0.73600
O50         O  0.18856097  0.26023706  0.35690919    -0.73100
O51         O  0.18193517  0.41508300  0.34775379    -0.73800
O52         O  0.18557948  0.29193710  0.40672815    -0.73400
O53         O  0.17968789  0.30465148  0.27904123    -0.74000
O54         O  0.11903596  0.27537977  0.34297301    -0.73400
O55         O  0.13427005  0.40826463  0.31725691    -0.74100
O56         O  0.14574601  0.25133885  0.31692671    -0.73500
O57         O  0.11322997  0.36562006  0.33810753    -0.74000
O58         O  0.12253379  0.33304487  0.41109835    -0.73900
O59         O  0.15119868  0.34966126  0.43524604    -0.73700
C60         C  0.19287503  0.40958598  0.37447010     0.78100
C61         C  0.17833493  0.33577922  0.26247342     0.78600
C62         C  0.19239719  0.26428760  0.38927509     0.77600
C63         C  0.12739918  0.24947436  0.32522889     0.77900
C64         C  0.11658395  0.39713167  0.32362505     0.79100
C65         C  0.13245251  0.34494976  0.43702517     0.78100
N66         N  0.25846954  0.08991457  0.52833836    -0.02500
C67         C  0.27402069  0.06805678  0.51791215     0.00100
C68         C  0.28191360  0.04878175  0.54576723    -0.22800
C69         C  0.27068385  0.05822065  0.57430305    -0.23000
C70         C  0.25633961  0.08326117  0.56315910     0.00000
H71         H  0.29386804  0.02838649  0.54500158     0.13800
H72         H  0.27222493  0.04669864  0.60019911     0.13800
C73         C  0.02640967  0.39115347  0.66609141     0.81200
N74         N  0.03506779  0.37721359  0.69548767    -0.77100
C75         C  0.05482320  0.36848430  0.69524859     0.83600
N76         N  0.06567358  0.37382150  0.66593411    -0.77100
C77         C  0.05710742  0.38670562  0.63651113     0.83700
N78         N  0.03744314  0.39511705  0.63660936    -0.78800
Zn79       Zn  0.90690819  0.60987680  0.61249946     1.49700
Zn80       Zn  0.86669566  0.60564818  0.57040183     1.49400
Zn81       Zn  0.87025700  0.56503927  0.64610737     1.49100
Zn82       Zn  0.86833260  0.65637513  0.63900672     1.49500
O83         O  0.87790363  0.60918023  0.61727930    -1.83200
O84         O  0.91599465  0.60818523  0.56255700    -0.73800
O85         O  0.85070452  0.55800452  0.56612674    -0.73600
O86         O  0.89438822  0.53122124  0.65766374    -0.73100
O87         O  0.88782737  0.60308973  0.53308386    -0.73800
O88         O  0.91882199  0.56304705  0.63220883    -0.73400
O89         O  0.85116993  0.53108560  0.61851249    -0.74000
O90         O  0.85333657  0.64508321  0.68423348    -0.73400
O91         O  0.85013713  0.65135249  0.55854737    -0.74100
O92         O  0.85701534  0.58304062  0.69112418    -0.73500
O93         O  0.85120151  0.68784907  0.60560484    -0.74000
O94         O  0.89202584  0.68888071  0.65176307    -0.73900
O95         O  0.91864602  0.65594640  0.63536843    -0.73700
C96         C  0.90669614  0.60452790  0.53401611     0.78100
C97         C  0.84581152  0.53144818  0.58665419     0.78600
C98         C  0.91254128  0.53426192  0.64845521     0.77600
C99         C  0.85091172  0.61507288  0.70207325     0.77900
C100        C  0.84573519  0.68191096  0.57427168     0.79100
C101        C  0.91080562  0.68509053  0.64913591     0.78100
N102        N  0.78996831  0.87670799  0.44330719    -0.02500
C103        C  0.78068556  0.90921825  0.45312930     0.00100
C104        C  0.77591035  0.93082100  0.42457531    -0.22800
C105        C  0.78210005  0.91116956  0.39593462    -0.23000
C106        C  0.79068683  0.87838246  0.40789770     0.00000
H107        H  0.76824519  0.95765167  0.42461002     0.13800
H108        H  0.78069576  0.91999970  0.36912125     0.13800
C109        C  0.00835571  0.89718888  0.79902962     0.81200
N110        N  0.00160504  0.87695008  0.77118460    -0.77100
C111        C  0.98509417  0.85503191  0.77473976     0.83600
N112        N  0.97587335  0.85269847  0.80597822    -0.77100
C113        C  0.98259124  0.87240944  0.83366977     0.83700
N114        N  0.99857715  0.89531016  0.82999128    -0.78800
Zn115      Zn  0.17133270  0.11183827  0.89724830     1.49700
Zn116      Zn  0.13002929  0.12702821  0.86047191     1.49400
Zn117      Zn  0.16967999  0.16403028  0.82937506     1.49100
Zn118      Zn  0.16170460  0.07363290  0.82245172     1.49500
O119        O  0.15834378  0.11902090  0.85202664    -1.83200
O120        O  0.15119110  0.10386254  0.93600191    -0.73800
O121        O  0.12029999  0.17713670  0.84265638    -0.73600
O122        O  0.18786012  0.19333755  0.86312756    -0.73100
O123        O  0.12285012  0.12044498  0.91078559    -0.73800
O124        O  0.18704517  0.15824816  0.91099877    -0.73400
O125        O  0.14741623  0.20053765  0.81762077    -0.74000
O126        O  0.17506466  0.08892086  0.77695405    -0.73400
O127        O  0.11411681  0.08752545  0.83657210    -0.74100
O128        O  0.18331199  0.14953380  0.78303309    -0.73500
O129        O  0.13497075  0.04764066  0.81104897    -0.74000
O130        O  0.17962003  0.03552579  0.84730627    -0.73900
O131        O  0.18892559  0.06554621  0.89575132    -0.73700
C132        C  0.13250995  0.10946386  0.93727572     0.78100
C133        C  0.12896395  0.20260719  0.82502848     0.78600
C134        C  0.19227268  0.18813624  0.89509514     0.77600
C135        C  0.18314447  0.11892791  0.76526617     0.77900
C136        C  0.11734066  0.05770810  0.81906864     0.79100
C137        C  0.18969958  0.03711969  0.87540495     0.78100
N138        N  0.24086661  0.39366012  0.02139025    -0.02500
C139        C  0.25213192  0.42376119  0.01138940     0.00100
C140        C  0.25302922  0.45042084  0.03752445    -0.22800
C141        C  0.24207205  0.43669860  0.06469841    -0.23000
C142        C  0.23482298  0.40197600  0.05439581     0.00000
H143        H  0.26082972  0.47710198  0.03680415     0.13800
H144        H  0.23946608  0.45071759  0.08933841     0.13800
C145        C  0.51291552  0.57713443  0.15476988     0.81200
N146        N  0.50487001  0.59484226  0.18310047    -0.77100
C147        C  0.48790184  0.61544544  0.17922865     0.83600
N148        N  0.47941921  0.61843963  0.14750771    -0.77100
C149        C  0.48732318  0.60110836  0.11948862     0.83700
N150        N  0.50382065  0.57974121  0.12324616    -0.78800
Zn151      Zn  0.66766375  0.34524565  0.05823929     1.49700
Zn152      Zn  0.62712091  0.33654987  0.09943777     1.49400
Zn153      Zn  0.66680607  0.29547091  0.12823785     1.49100
Zn154      Zn  0.66147098  0.38652108  0.13285498     1.49500
O155        O  0.65594333  0.34079362  0.10488302    -1.83200
O156        O  0.64638832  0.35075967  0.02061749    -0.73800
O157        O  0.61685346  0.28806331  0.11951558    -0.73600
O158        O  0.68485117  0.26493748  0.09479314    -0.73100
O159        O  0.61818318  0.34234274  0.04957558    -0.73800
O160        O  0.68388122  0.29896535  0.04627411    -0.73400
O161        O  0.64391705  0.26029388  0.14071552    -0.74000
O162        O  0.67457523  0.37190055  0.17834701    -0.73400
O163        O  0.61327127  0.37856737  0.12369063    -0.74100
O164        O  0.68083890  0.31029474  0.17445159    -0.73500
O165        O  0.63647692  0.41674811  0.14470148    -0.74000
O166        O  0.67968252  0.42159632  0.10607711    -0.73900
O167        O  0.68545387  0.39128231  0.05614800    -0.73700
C168        C  0.62746829  0.34883095  0.02139714     0.78100
C169        C  0.62520275  0.26095295  0.13545613     0.78600
C170        C  0.68946078  0.26973410  0.06281536     0.77600
C171        C  0.68162324  0.34158679  0.19115219     0.77900
C172        C  0.61831169  0.40878217  0.13910280     0.79100
C173        C  0.68808422  0.41935251  0.07642339     0.78100
N174        N  0.74765805  0.07658706  0.93184272    -0.02500
C175        C  0.75737328  0.04462248  0.94154982     0.00100
C176        C  0.76187509  0.02262343  0.91295358    -0.22800
C177        C  0.75512630  0.04168488  0.88441544    -0.23000
C178        C  0.74650185  0.07449189  0.89654260     0.00000
H179        H  0.76988153  0.99615605  0.91282321     0.13800
H180        H  0.75641779  0.03267346  0.85757780     0.13800
C181        C  0.53140375  0.05178681  0.29289974     0.81200
N182        N  0.54164666  0.05670588  0.32305296    -0.77100
C183        C  0.55783165  0.07927267  0.32411577     0.83600
N184        N  0.56425109  0.09593737  0.29459951    -0.77100
C185        C  0.55444239  0.09080602  0.26417170     0.83700
N186        N  0.53772805  0.06911346  0.26325089    -0.78800
Zn187      Zn  0.40527006  0.83417906  0.35744459     1.49700
Zn188      Zn  0.36445651  0.85018175  0.39392114     1.49400
Zn189      Zn  0.37364066  0.88779923  0.31927641     1.49100
Zn190      Zn  0.36592129  0.79770050  0.32565733     1.49500
O191        O  0.37713517  0.84265722  0.34870727    -1.83200
O192        O  0.41271716  0.83926933  0.40762959    -0.73800
O193        O  0.34613531  0.89549237  0.39199278    -0.73600
O194        O  0.40031293  0.91366801  0.30869080    -0.73100
O195        O  0.38477094  0.85843906  0.43280504    -0.73800
O196        O  0.42101094  0.87454683  0.33543966    -0.73400
O197        O  0.35509932  0.92573246  0.34363645    -0.74000
O198        O  0.35162740  0.81226879  0.28055844    -0.73400
O199        O  0.34895878  0.80367699  0.40691722    -0.74100
O200        O  0.36093639  0.87212000  0.27337110    -0.73500
O201        O  0.34821508  0.76780689  0.35929666    -0.74000
O202        O  0.38825381  0.76237114  0.31127206    -0.73900
O203        O  0.41513695  0.78528936  0.33743362    -0.73700
C204        C  0.40334459  0.85145070  0.43406008     0.78100
C205        C  0.34483999  0.92364338  0.37156246     0.78600
C206        C  0.41781315  0.90405911  0.31779414     0.77600
C207        C  0.35237489  0.84229094  0.26227479     0.77900
C208        C  0.34373062  0.77359677  0.39116673     0.79100
C209        C  0.40673834  0.76067712  0.31835999     0.78100
N210        N  0.27978103  0.58820611  0.52254759    -0.02500
C211        C  0.26756004  0.55910862  0.51316724     0.00100
C212        C  0.26028863  0.54109957  0.54229426    -0.22800
C213        C  0.26804296  0.55930338  0.57062039    -0.23000
C214        C  0.28004132  0.58772538  0.55805722     0.00000
H215        H  0.25054133  0.51682405  0.54281087     0.13800
H216        H  0.26573919  0.55179153  0.59759628     0.13800
C217        C  0.52185269  0.39678310  0.79002157     0.81200
N218        N  0.52874907  0.37873324  0.76107723    -0.77100
C219        C  0.54676875  0.36139514  0.76192629     0.83600
N220        N  0.55766609  0.36200899  0.79154739    -0.77100
C221        C  0.55096849  0.37994362  0.82036453     0.83700
N222        N  0.53287438  0.39682378  0.81970834    -0.78800
Zn223      Zn  0.34755655  0.63000919  0.83785693     1.49700
Zn224      Zn  0.38767277  0.66561482  0.87047324     1.49400
Zn225      Zn  0.38141668  0.57651193  0.87007504     1.49100
Zn226      Zn  0.38992928  0.61913336  0.79872826     1.49500
O227        O  0.37647530  0.62299331  0.84408517    -1.83200
O228        O  0.33808054  0.67758631  0.86399272    -0.73800
O229        O  0.40207932  0.64754690  0.91308684    -0.73600
O230        O  0.35609719  0.54857748  0.88077618    -0.73100
O231        O  0.36597875  0.69970113  0.88753457    -0.73800
O232        O  0.33236889  0.58481642  0.85837273    -0.73400
O233        O  0.39650521  0.58582874  0.91434154    -0.74000
O234        O  0.40647219  0.57107960  0.79412524    -0.73400
O235        O  0.40728678  0.69636545  0.84194234    -0.74100
O236        O  0.39962018  0.54252429  0.84401872    -0.73500
O237        O  0.40918631  0.66249106  0.79328250    -0.74000
O238        O  0.36983705  0.62181696  0.75936350    -0.73900
O239        O  0.34095715  0.63364624  0.78570458    -0.73700
C240        C  0.34727133  0.70139835  0.88315661     0.78100
C241        C  0.40423642  0.61541305  0.92718573     0.78600
C242        C  0.33784971  0.55520658  0.87464007     0.77600
C243        C  0.40892029  0.54392199  0.81529403     0.77900
C244        C  0.41453521  0.69061465  0.81177803     0.79100
C245        C  0.35122837  0.62861626  0.75805637     0.78100
N246        N  0.27959870  0.87203470  0.02465198    -0.02500
C247        C  0.26283439  0.89175569  0.01716944     0.00100
C248        C  0.25529819  0.90867587  0.04673076    -0.22800
C249        C  0.26787385  0.89947955  0.07345627    -0.23000
C250        C  0.28262800  0.87707514  0.05939768     0.00000
H251        H  0.24239190  0.92679177  0.04842082     0.13800
H252        H  0.26657270  0.90856772  0.10026776     0.13800
C253        C  0.50984968  0.90658259  0.66263086     0.81200
N254        N  0.49840009  0.90651770  0.63342157    -0.77100
C255        C  0.48056318  0.88870311  0.63308194     0.83600
N256        N  0.47453572  0.86973437  0.66164669    -0.77100
C257        C  0.48585224  0.86888775  0.69078520     0.83700
N258        N  0.50363095  0.88736121  0.69138128    -0.78800
Zn259      Zn  0.64840289  0.16331258  0.58154015     1.49700
Zn260      Zn  0.64747421  0.11937100  0.65471249     1.49400
Zn261      Zn  0.65529723  0.07402505  0.58531714     1.49100
Zn262      Zn  0.68893688  0.13175710  0.61364908     1.49500
O263        O  0.66015724  0.12222310  0.60879548    -1.83200
O264        O  0.62957609  0.19493373  0.61081522    -0.73800
O265        O  0.63041644  0.07221544  0.66138541    -0.73600
O266        O  0.64058198  0.08146789  0.54031264    -0.73100
O267        O  0.62874344  0.16275924  0.66037740    -0.73800
O268        O  0.63350904  0.14274504  0.53995310    -0.73400
O269        O  0.63623326  0.04148770  0.61206713    -0.74000
O270        O  0.70431985  0.08723114  0.59388118    -0.73400
O271        O  0.66794805  0.12419374  0.69274110    -0.74100
O272        O  0.68114864  0.04627419  0.57672003    -0.73500
O273        O  0.69627940  0.13703033  0.66507967    -0.74000
O274        O  0.69781424  0.17873910  0.58652643    -0.73900
O275        O  0.66950111  0.19771831  0.56260938    -0.73700
C276        C  0.62310424  0.19025061  0.64163476     0.78100
C277        C  0.62710880  0.04462509  0.64089582     0.78600
C278        C  0.63210752  0.10989514  0.52673519     0.77600
C279        C  0.69931387  0.05551284  0.58080150     0.77900
C280        C  0.68639792  0.13225507  0.69313320     0.79100
C281        C  0.68818251  0.20101676  0.56672211     0.78100
N282        N  0.75534828  0.37508944  0.42795425    -0.02500
C283        C  0.77200548  0.39589594  0.43433610     0.00100
C284        C  0.77737687  0.41613024  0.40520902    -0.22800
C285        C  0.76352288  0.40835144  0.38014195    -0.23000
C286        C  0.75019391  0.38321523  0.39449394     0.00000
H287        H  0.78975458  0.43544596  0.40281713     0.13800
H288        H  0.76311890  0.41995094  0.35414096     0.13800
C289        C  0.72260098  0.31750864  0.47362286     0.30700
C290        C  0.70432322  0.30045776  0.48135010    -0.35600
C291        C  0.70439408  0.27422984  0.50859503     0.16700
C292        C  0.72129267  0.26496069  0.52696386     0.22500
C293        C  0.73960878  0.28231019  0.51943109    -0.33700
C294        C  0.73950788  0.30886621  0.49226877     0.16600
O295        O  0.72593431  0.34213495  0.44858451    -0.25700
C296        C  0.74520861  0.34985942  0.45141695     0.06400
C297        C  0.75445349  0.32985594  0.47809961    -0.30600
O298        O  0.71799020  0.23837496  0.55040965    -0.22400
C299        C  0.69866967  0.23081115  0.54708666    -0.02400
C300        C  0.68951976  0.25245444  0.52155937    -0.16900
H301        H  0.69098727  0.30687087  0.46682515     0.21100
H302        H  0.75303375  0.27529120  0.53345622     0.19500
H303        H  0.76996956  0.32982806  0.48538559     0.19400
H304        H  0.67419953  0.25144810  0.51305955     0.15300
C305        C  0.55536968  0.95422803  0.67531375     0.30700
C306        C  0.56987868  0.97579180  0.69285356    -0.35600
C307        C  0.58577982  0.98920736  0.67240087     0.16700
C308        C  0.58739374  0.98119365  0.63735419     0.22500
C309        C  0.57293785  0.95998429  0.61991664    -0.33700
C310        C  0.55696340  0.94734497  0.64007654     0.16600
O311        O  0.53877617  0.94014030  0.68864652    -0.25700
C312        C  0.52962713  0.92463246  0.66132622     0.06400
C313        C  0.54028628  0.92845218  0.63056684    -0.30600
O314        O  0.60271372  0.99787565  0.62267653    -0.22400
C315        C  0.61112093  0.01733095  0.64835603    -0.02400
C316        C  0.60121077  0.01308260  0.68002157    -0.16900
H317        H  0.56855599  0.98258827  0.72023181     0.21100
H318        H  0.57375981  0.95474871  0.59218569     0.19500
H319        H  0.53619538  0.91893841  0.60475750     0.19400
H320        H  0.60434603  0.02693785  0.70453604     0.15300
C321        C  0.33076804  0.77340266  0.93895488     0.30700
C322        C  0.33239958  0.79903046  0.96673769    -0.35600
C323        C  0.31486691  0.81761846  0.97657812     0.16700
C324        C  0.29698882  0.81180696  0.95985966     0.22500
C325        C  0.29536012  0.78616255  0.93200296    -0.33700
C326        C  0.31286636  0.76714592  0.92246379     0.16600
O327        O  0.34511049  0.75182612  0.92667678    -0.25700
C328        C  0.33635730  0.73120122  0.90206432     0.06400
C329        C  0.31624807  0.73950786  0.89826607    -0.30600
O330        O  0.28234892  0.83123974  0.97410025    -0.22400
C331        C  0.29092360  0.84949311  0.00046130    -0.02400
C332        C  0.31118132  0.84215688  0.00322602    -0.16900
H333        H  0.34628943  0.80345120  0.98031999     0.21100
H334        H  0.28131976  0.78074445  0.91923202     0.19500
H335        H  0.30562957  0.72653256  0.88082155     0.19400
H336        H  0.32164279  0.85282322  0.02217850     0.15300
C337        C  0.46948775  0.78854672  0.73317535     0.30700
C338        C  0.46221967  0.75163234  0.73306090    -0.35600
C339        C  0.45045714  0.74145643  0.76144692     0.16700
C340        C  0.44621914  0.76567007  0.78860593     0.22500
C341        C  0.45385446  0.80275151  0.78904673    -0.33700
C342        C  0.46556792  0.81319895  0.76018020     0.16600
O343        O  0.47844124  0.80482312  0.70686036    -0.25700
C344        C  0.48071354  0.84040014  0.71686665     0.06400
C345        C  0.47300992  0.84748761  0.74995334    -0.30600
O346        O  0.43339296  0.75083076  0.81087474    -0.22400
C347        C  0.42941020  0.71689898  0.79742826    -0.02400
C348        C  0.43972981  0.70964412  0.76685473    -0.16900
H349        H  0.46460391  0.73281269  0.71124386     0.21100
H350        H  0.45006215  0.82259513  0.80942753     0.19500
H351        H  0.47139594  0.87442056  0.76295377     0.19400
H352        H  0.43877757  0.68506366  0.75017816     0.15300
C353        C  0.59203997  0.26544453  0.66605151     0.30700
C354        C  0.58478515  0.30269410  0.66690700    -0.35600
C355        C  0.57099226  0.31095638  0.69343406     0.16700
C356        C  0.56475709  0.28416174  0.71703698     0.22500
C357        C  0.57185021  0.24717173  0.71601233    -0.33700
C358        C  0.58573918  0.23917606  0.69005930     0.16600
O359        O  0.60589825  0.25181104  0.64507243    -0.25700
C360        C  0.60849524  0.21662351  0.65628701     0.06400
C361        C  0.59638608  0.20738665  0.68421527    -0.30600
O362        O  0.55390346  0.29846039  0.74217954    -0.22400
C363        C  0.55283266  0.33488896  0.73475990    -0.02400
C364        C  0.56317480  0.34451898  0.70464790    -0.16900
H365        H  0.59018522  0.32406400  0.64923654     0.21100
H366        H  0.56763346  0.22656351  0.73536427     0.19500
H367        H  0.59575753  0.18114815  0.69848600     0.19400
H368        H  0.56621531  0.37244042  0.69469510     0.15300
C369        C  0.47612330  0.43755271  0.81107570     0.30700
C370        C  0.46132593  0.45028660  0.83379438    -0.35600
C371        C  0.44679923  0.47354586  0.81925944     0.16700
C372        C  0.44683630  0.48416897  0.78474736     0.22500
C373        C  0.46138891  0.47040059  0.76163569    -0.33700
C374        C  0.47591190  0.44663821  0.77617343     0.16600
O375        O  0.49201336  0.41836531  0.82007995    -0.25700
C376        C  0.50208925  0.41439433  0.79057336     0.06400
C377        C  0.49270433  0.43100828  0.76218946    -0.30600
O378        O  0.43300023  0.50961506  0.77789582    -0.22400
C379        C  0.42386051  0.51456318  0.80835570    -0.02400
C380        C  0.43177107  0.49260297  0.83480091    -0.16900
H381        H  0.46159423  0.44378575  0.86129906     0.21100
H382        H  0.46184658  0.47885892  0.73461123     0.19500
H383        H  0.49806510  0.43318029  0.73571271     0.19400
H384        H  0.42790070  0.49272603  0.86215782     0.15300
C385        C  0.31667037  0.61821139  0.61567177     0.30700
C386        C  0.33510729  0.61405595  0.63253172    -0.35600
C387        C  0.33559815  0.62349185  0.66813626     0.16700
C388        C  0.31911179  0.63629274  0.68595482     0.22500
C389        C  0.30082717  0.64118716  0.66896605    -0.33700
C390        C  0.30031892  0.63166453  0.63345256     0.16600
O391        O  0.31203813  0.60517806  0.58437779    -0.25700
C392        C  0.29248489  0.61066940  0.58185493     0.06400
C393        C  0.28453858  0.62732012  0.61164911    -0.30600
O394        O  0.32240462  0.64032895  0.71968608    -0.22400
C395        C  0.34133023  0.63022764  0.72365328    -0.02400
C396        C  0.35028406  0.61962315  0.69236846    -0.16900
H397        H  0.34786106  0.60208625  0.61936839     0.21100
H398        H  0.28760589  0.64975440  0.68294141     0.19500
H399        H  0.26898946  0.63094362  0.61805815     0.19400
H400        H  0.36521007  0.60911584  0.68833367     0.15300
C401        C  0.31073135  0.83696611  0.12555544     0.30700
C402        C  0.31308000  0.81458171  0.15549025    -0.35600
C403        C  0.32629627  0.82837143  0.18089925     0.16700
C404        C  0.33645199  0.86188522  0.17706359     0.22500
C405        C  0.33445971  0.88374526  0.14688557    -0.33700
C406        C  0.32135038  0.86991610  0.12149808     0.16600
O407        O  0.29695466  0.83269058  0.10131607    -0.25700
C408        C  0.29910392  0.86279133  0.08094260     0.06400
C409        C  0.31409700  0.88679659  0.09239152    -0.30600
O410        O  0.34683858  0.87102014  0.20495242    -0.22400
C411        C  0.34349041  0.84289593  0.22706827    -0.02400
C412        C  0.33087777  0.81538302  0.21340700    -0.16900
H413        H  0.30440563  0.78929809  0.15954031     0.21100
H414        H  0.34187404  0.91063115  0.14413600     0.19500
H415        H  0.31734962  0.91495400  0.08323013     0.19400
H416        H  0.32543657  0.79014760  0.22597340     0.15300
C417        C  0.43898474  0.87083036  0.49812417     0.30700
C418        C  0.45798802  0.87957704  0.51089353    -0.35600
C419        C  0.45969630  0.88271435  0.54715156     0.16700
C420        C  0.44385465  0.87691593  0.56932489     0.22500
C421        C  0.42477256  0.86880147  0.55651578    -0.33700
C422        C  0.42298608  0.86630824  0.52020726     0.16600
O423        O  0.43415084  0.86587366  0.46521474    -0.25700
C424        C  0.41474165  0.85862831  0.46607327     0.06400
C425        C  0.40693336  0.85875527  0.49960627    -0.30600
O426        O  0.44903734  0.87900043  0.60234522    -0.22400
C427        C  0.46837110  0.88691662  0.60136325    -0.02400
C428        C  0.47580252  0.88979238  0.56768804    -0.16900
H429        H  0.47060298  0.88332136  0.49375023     0.21100
H430        H  0.41224188  0.86433871  0.57369112     0.19500
H431        H  0.39177339  0.85338795  0.50760738     0.19400
H432        H  0.49099815  0.89468160  0.55960532     0.15300
C433        C  0.31850331  0.69414021  0.42436324     0.30700
C434        C  0.30939623  0.65834553  0.42391840    -0.35600
C435        C  0.30258742  0.64469120  0.45619954     0.16700
C436        C  0.30473898  0.66484098  0.48671103     0.22500
C437        C  0.31376743  0.70047072  0.48715222    -0.33700
C438        C  0.32040768  0.71414627  0.45500897     0.16600
O439        O  0.32615116  0.71234825  0.39743522    -0.25700
C440        C  0.33286876  0.74453175  0.41112561     0.06400
C441        C  0.32965975  0.74702575  0.44682949    -0.30600
O442        O  0.29729790  0.64715215  0.51385796    -0.22400
C443        C  0.29016783  0.61506057  0.50086558    -0.02400
C444        C  0.29304684  0.61195599  0.46494831    -0.16900
H445        H  0.30771164  0.64230516  0.40010893     0.21100
H446        H  0.31545092  0.71650771  0.51096940     0.19500
H447        H  0.33389617  0.76957148  0.46436354     0.19400
H448        H  0.28886943  0.58926795  0.44762796     0.15300
C449        C  0.60650732  0.11561272  0.44777169     0.30700
C450        C  0.60082776  0.13166947  0.41604854    -0.35600
C451        C  0.58778831  0.11019203  0.39566635     0.16700
C452        C  0.58042535  0.07568079  0.40605113     0.22500
C453        C  0.58623636  0.05943932  0.43770331    -0.33700
C454        C  0.59969531  0.08053938  0.45772732     0.16600
O455        O  0.61873459  0.13068239  0.47068378    -0.25700
C456        C  0.62009977  0.10459857  0.49530208     0.06400
C457        C  0.60865142  0.07271427  0.48862271    -0.30600
O458        O  0.56851462  0.06044400  0.38266492    -0.22400
C459        C  0.56856015  0.08531264  0.35682492    -0.02400
C460        C  0.58029233  0.11675987  0.36345625    -0.16900
H461        H  0.60641625  0.15872769  0.40762152     0.21100
H462        H  0.58092180  0.03207672  0.44583646     0.19500
H463        H  0.60693924  0.04780493  0.50452652     0.19400
H464        H  0.58299517  0.14077631  0.34681927     0.15300
C465        C  0.48603693  0.00354782  0.28296749     0.30700
C466        C  0.46672561  0.99614420  0.27045840    -0.35600
C467        C  0.45595277  0.96811170  0.28828958     0.16700
C468        C  0.46392265  0.94851380  0.31592378     0.22500
C469        C  0.48299404  0.95594151  0.32840731    -0.33700
C470        C  0.49350642  0.98411641  0.31110865     0.16600
O471        O  0.49857427  0.02954775  0.27157009    -0.25700
C472        C  0.51402729  0.02662882  0.29310513     0.06400
C473        C  0.51160369  0.99885065  0.31807929    -0.30600
O474        O  0.45157243  0.92376071  0.32905060    -0.22400
C475        C  0.43523128  0.92747240  0.31007883    -0.02400
C476        C  0.43695618  0.95479177  0.28424626    -0.16900
H477        H  0.46042832  0.01159112  0.24889963     0.21100
H478        H  0.48908609  0.94119014  0.35057346     0.19500
H479        H  0.52161796  0.99117012  0.33890889     0.19400
H480        H  0.42594252  0.96339986  0.26539384     0.15300
C481        C  0.73363221  0.12391786  0.82242909     0.30700
C482        C  0.73645255  0.13196945  0.78702049    -0.35600
C483        C  0.71917628  0.13589897  0.76702901     0.16700
C484        C  0.70038427  0.13254116  0.78105774     0.22500
C485        C  0.69756122  0.12577033  0.81674296    -0.33700
C486        C  0.71486441  0.12150147  0.83673978     0.16600
O487        O  0.74748091  0.11167063  0.84372993    -0.25700
C488        C  0.73766862  0.10190796  0.87240553     0.06400
C489        C  0.71728821  0.10775542  0.86966760    -0.30600
O490        O  0.68642214  0.13211693  0.75700380    -0.22400
C491        C  0.69635319  0.13539510  0.72717350    -0.02400
C492        C  0.71679965  0.13822681  0.73184622    -0.16900
H493        H  0.75108245  0.13195691  0.77531328     0.21100
H494        H  0.68292213  0.12117964  0.82759947     0.19500
H495        H  0.70579862  0.09799204  0.88718410     0.19400
H496        H  0.72827275  0.13916580  0.71211627     0.15300
C497        C  0.69762199  0.36574829  0.27562830     0.30700
C498        C  0.70010414  0.38976235  0.30442409    -0.35600
C499        C  0.71191201  0.37599594  0.33167002     0.16700
C500        C  0.72093537  0.34113497  0.33065124     0.22500
C501        C  0.71808180  0.31667801  0.30203170    -0.33700
C502        C  0.70611527  0.33039227  0.27473434     0.16600
O503        O  0.68814241  0.37407741  0.24659819    -0.25700
C504        C  0.69034046  0.34359094  0.22660619     0.06400
C505        C  0.70136770  0.31534847  0.24286329    -0.30600
O506        O  0.73402394  0.33680357  0.35610299    -0.22400
C507        C  0.73307717  0.36901228  0.37412126    -0.02400
C508        C  0.71941932  0.39416703  0.36000626    -0.16900
H509        H  0.69401123  0.41796541  0.30484438     0.21100
H510        H  0.72551906  0.28972156  0.30032151     0.19500
H511        H  0.70562615  0.28815789  0.23243957     0.19400
H512        H  0.71747768  0.42359666  0.36670759     0.15300
C513        C  0.59225918  0.36925699  0.95652680     0.30700
C514        C  0.57385221  0.38101451  0.94304091    -0.35600
C515        C  0.57189027  0.37959238  0.90666671     0.16700
C516        C  0.58695276  0.36709257  0.88515313     0.22500
C517        C  0.60542815  0.35594974  0.89856994    -0.33700
C518        C  0.60746191  0.35774929  0.93485167     0.16600
O519        O  0.59719165  0.36735216  0.98972926    -0.25700
C520        C  0.61589150  0.35493881  0.98929743     0.06400
C521        C  0.62307916  0.34870807  0.95582631    -0.30600
O522        O  0.58164823  0.36621896  0.85216510    -0.22400
C523        C  0.56299332  0.37868085  0.85234575    -0.02400
C524        C  0.55614632  0.38767273  0.88555182    -0.16900
H525        H  0.56182509  0.39017319  0.95975942     0.21100
H526        H  0.61731742  0.34609971  0.88188279     0.19500
H527        H  0.63756873  0.33836447  0.94815107     0.19400
H528        H  0.54152436  0.39744680  0.89309779     0.15300
C529        C  0.71331766  0.18823351  0.02994314     0.30700
C530        C  0.71944179  0.15026402  0.02931660    -0.35600
C531        C  0.72785035  0.13721231  0.99794455     0.16700
C532        C  0.72999232  0.15988714  0.96907450     0.22500
C533        C  0.72396322  0.19780594  0.96974280    -0.33700
C534        C  0.71562493  0.21084705  0.00108726     0.16600
O535        O  0.70437576  0.20598124  0.05601715    -0.25700
C536        C  0.70092323  0.24048975  0.04368714     0.06400
C537        C  0.70766446  0.24497114  0.00964369    -0.30600
O538        O  0.73749662  0.14161351  0.94207053    -0.22400
C539        C  0.74042625  0.10676736  0.95381515    -0.02400
C540        C  0.73463882  0.10236581  0.98843299    -0.16900
H541        H  0.71750040  0.13198626  0.05155464     0.21100
H542        H  0.72535813  0.21575895  0.94715267     0.19500
H543        H  0.70632693  0.26954638  0.99318213     0.19400
H544        H  0.73471161  0.07701832  0.00399462     0.15300
C545        C  0.56937813  0.15102817  0.19791640     0.30700
C546        C  0.56891253  0.18520654  0.17957081    -0.35600
C547        C  0.58726155  0.19831734  0.16700970     0.16700
C548        C  0.60485490  0.17909413  0.17202319     0.22500
C549        C  0.60525509  0.14455481  0.18957896    -0.33700
C550        C  0.58696409  0.13155689  0.20223970     0.16600
O551        O  0.55470427  0.13676223  0.21661836    -0.25700
C552        C  0.56300665  0.10764618  0.23280053     0.06400
C553        C  0.58298126  0.10304862  0.22463777    -0.30600
O554        O  0.62049435  0.19815148  0.16112536    -0.22400
C555        C  0.61283014  0.22989671  0.14863832    -0.02400
C556        C  0.59221470  0.23147273  0.15146254    -0.16900
H557        H  0.55543102  0.20159939  0.17716939     0.21100
H558        H  0.61904002  0.12997405  0.19485763     0.19500
H559        H  0.59353967  0.08412234  0.23665712     0.19400
H560        H  0.58243486  0.25449575  0.14460736     0.15300
C561        C  0.43792539  0.59228367  0.99294370     0.30700
C562        C  0.45269155  0.57101010  0.00971961    -0.35600
C563        C  0.46151071  0.58804802  0.03890299     0.16700
C564        C  0.45583749  0.62315474  0.05092800     0.22500
C565        C  0.44134709  0.64450698  0.03396645    -0.33700
C566        C  0.43281404  0.62782364  0.00461703     0.16600
O567        O  0.42794581  0.58243169  0.96482876    -0.25700
C568        C  0.41656816  0.61232141  0.95837773     0.06400
C569        C  0.41899417  0.64137787  0.98223056    -0.30600
O570        O  0.46484143  0.63269647  0.07991232    -0.22400
C571        C  0.47673749  0.60372843  0.08641267    -0.02400
C572        C  0.47549735  0.57511307  0.06164334    -0.16900
H573        H  0.45694988  0.54323907  0.00073251     0.21100
H574        H  0.43694067  0.67210772  0.04317695     0.19500
H575        H  0.41185526  0.66870876  0.98260831     0.19400
H576        H  0.48279725  0.54793361  0.06170003     0.15300
C577        C  0.45092487  0.64972600  0.23394548     0.30700
C578        C  0.43125835  0.65976507  0.24146956    -0.35600
C579        C  0.42867147  0.68623329  0.26809657     0.16700
C580        C  0.44437441  0.70176415  0.28619936     0.22500
C581        C  0.46411807  0.69102497  0.27913957    -0.33700
C582        C  0.46674297  0.66442482  0.25234428     0.16600
O583        O  0.45662329  0.62916477  0.20733553    -0.25700
C584        C  0.47635044  0.62997904  0.20870214     0.06400
C585        C  0.48361426  0.65124299  0.23639112    -0.30600
O586        O  0.43862284  0.72896485  0.30743848    -0.22400
C587        C  0.41901058  0.73065434  0.30292992    -0.02400
C588        C  0.41199431  0.70451118  0.27891556    -0.16900
H589        H  0.41891076  0.64923090  0.22628083     0.21100
H590        H  0.47657869  0.70394797  0.29234162     0.19500
H591        H  0.49888360  0.65863073  0.24197143     0.19400
H592        H  0.39700896  0.70119716  0.26918544     0.15300
C593        C  0.57383047  0.45818113  0.14663292     0.30700
C594        C  0.55394177  0.46475078  0.13855912    -0.35600
C595        C  0.54631045  0.49950254  0.14900524     0.16700
C596        C  0.55726716  0.52623160  0.16674208     0.22500
C597        C  0.57744599  0.51966756  0.17476657    -0.33700
C598        C  0.58526263  0.48464630  0.16380468     0.16600
O599        O  0.58392091  0.42819888  0.13731246    -0.25700
C600        C  0.60224516  0.43504921  0.14829402     0.06400
C601        C  0.60409319  0.46984821  0.16509591    -0.30600
O602        O  0.54688228  0.55737834  0.17275209    -0.22400
C603        C  0.52926662  0.55001915  0.15830058    -0.02400
C604        C  0.52820625  0.51461749  0.14313175    -0.16900
H605        H  0.54514798  0.44447843  0.12419037     0.21100
H606        H  0.58649325  0.54062665  0.18774963     0.19500
H607        H  0.61739435  0.48280242  0.17547548     0.19400
H608        H  0.51592653  0.50220101  0.12899884     0.15300
C609        C  0.31109796  0.48244964  0.91532319     0.30700
C610        C  0.30876233  0.45124787  0.93743167    -0.35600
C611        C  0.28928530  0.44341800  0.94848023     0.16700
C612        C  0.27321930  0.46494076  0.93851861     0.22500
C613        C  0.27549757  0.49557477  0.91569992    -0.33700
C614        C  0.29497467  0.50345663  0.90472169     0.16600
O615        O  0.32815197  0.49721607  0.90519360    -0.25700
C616        C  0.32295052  0.52806221  0.88771514     0.06400
C617        C  0.30245225  0.53322342  0.88638481    -0.30600
O618        O  0.25710889  0.45718040  0.95677140    -0.22400
C619        C  0.26267510  0.42968931  0.97820629    -0.02400
C620        C  0.28257579  0.41997103  0.97404769    -0.16900
H621        H  0.32140150  0.43571407  0.94718134     0.21100
H622        H  0.26315262  0.51366202  0.90900431     0.19500
H623        H  0.29434243  0.55663998  0.87534248     0.19400
H624        H  0.29144829  0.40227996  0.99084811     0.15300
C625        C  0.22502253  0.30665267  0.98900779     0.30700
C626        C  0.21738059  0.26977257  0.99058193    -0.35600
C627        C  0.21292412  0.25250440  0.95851248     0.16700
C628        C  0.21560769  0.27036121  0.92702289     0.22500
C629        C  0.22342273  0.30709425  0.92546017    -0.33700
C630        C  0.22803422  0.32423981  0.95748590     0.16600
O631        O  0.22943138  0.32864386  0.01577138    -0.25700
C632        C  0.23557910  0.36066514  0.00120655     0.06400
C633        C  0.23497854  0.35947717  0.96494717    -0.30600
O634        O  0.20932520  0.24985410  0.90037821    -0.22400
C635        C  0.20270463  0.21815659  0.91489104    -0.02400
C636        C  0.20465794  0.21829382  0.95102272    -0.16900
H637        H  0.21472857  0.25577781  0.01513047     0.21100
H638        H  0.22540642  0.32161480  0.90098621     0.19500
H639        H  0.23827536  0.38164689  0.94660596     0.19400
H640        H  0.19983450  0.19695630  0.96924846     0.15300
C641        C  0.23103375  0.91575191  0.94984987     0.30700
C642        C  0.21196724  0.92397530  0.93710738    -0.35600
C643        C  0.21058668  0.95454038  0.91412311     0.16700
C644        C  0.22685919  0.97577507  0.90448913     0.22500
C645        C  0.24604989  0.96659254  0.91615311    -0.33700
C646        C  0.24745816  0.93581092  0.93897470     0.16600
O647        O  0.23496947  0.89384190  0.97664864    -0.25700
C648        C  0.25428228  0.89891409  0.98252077     0.06400
C649        C  0.26285019  0.92449828  0.95957835    -0.30600
O650        O  0.22178189  0.00678245  0.88771035    -0.22400
C651        C  0.20205560  0.00486094  0.88576762    -0.02400
C652        C  0.19429224  0.97292751  0.90166421    -0.16900
H653        H  0.19890296  0.90961086  0.94673431     0.21100
H654        H  0.25875497  0.98407044  0.91010900     0.19500
H655        H  0.27742295  0.93724665  0.96142135     0.19400
H656        H  0.17882799  0.96627717  0.90635854     0.15300
C657        C  0.08175158  0.99028252  0.79223378     0.30700
C658        C  0.07420585  0.95675741  0.77734731    -0.35600
C659        C  0.05428291  0.94785026  0.78550440     0.16700
C660        C  0.04286043  0.97021900  0.80711680     0.22500
C661        C  0.05016820  0.00385523  0.82111713    -0.33700
C662        C  0.06979934  0.01284214  0.81271454     0.16600
O663        O  0.10027998  0.00307858  0.79055220    -0.25700
C664        C  0.09987284  0.03439276  0.80995019     0.06400
C665        C  0.08123307  0.04174537  0.82398917    -0.30600
O666        O  0.02535210  0.95553339  0.81390136    -0.22400
C667        C  0.02515031  0.92351999  0.79594090    -0.02400
C668        C  0.04270111  0.91721547  0.77743684    -0.16900
H669        H  0.08333808  0.93842463  0.76149859     0.21100
H670        H  0.04133701  0.02125178  0.83834980     0.19500
H671        H  0.07696050  0.06423319  0.84156528     0.19400
H672        H  0.04668672  0.89283099  0.76196829     0.15300
C673        C  0.72806883  0.97941769  0.55110163     0.30700
C674        C  0.73128922  0.94320282  0.53739408    -0.35600
C675        C  0.75011273  0.93651934  0.52289929     0.16700
C676        C  0.76470374  0.96381547  0.52171075     0.22500
C677        C  0.76173293  0.99961808  0.53657712    -0.33700
C678        C  0.74292228  0.00623443  0.55113830     0.16600
O679        O  0.71090769  0.99297118  0.56206153    -0.25700
C680        C  0.71484949  0.02882548  0.56967709     0.06400
C681        C  0.73457942  0.03861837  0.56359737    -0.30600
O682        O  0.77922609  0.95475183  0.50022985    -0.22400
C683        C  0.77420487  0.92087823  0.48802697    -0.02400
C684        C  0.75634149  0.90795584  0.50173074    -0.16900
H685        H  0.71946286  0.92261160  0.53578854     0.21100
H686        H  0.77272120  0.02175405  0.53436063     0.19500
H687        H  0.74143558  0.06610358  0.56605040     0.19400
H688        H  0.74757733  0.88432372  0.49261807     0.15300
C689        C  0.82198802  0.76330947  0.54164419     0.30700
C690        C  0.81476454  0.80058897  0.54188126    -0.35600
C691        C  0.80803051  0.81473949  0.50977480     0.16700
C692        C  0.80842471  0.79371779  0.47953035     0.22500
C693        C  0.81552675  0.75650446  0.47933681    -0.33700
C694        C  0.82217214  0.74235736  0.51135315     0.16600
O695        O  0.82975651  0.74479330  0.56826827    -0.25700
C696        C  0.83483966  0.71141928  0.55481540     0.06400
C697        C  0.83040741  0.70847997  0.51952748    -0.30600
O698        O  0.80200178  0.81273077  0.45227005    -0.22400
C699        C  0.79728362  0.84649854  0.46507578    -0.02400
C700        C  0.80079086  0.84935997  0.50082328    -0.16900
H701        H  0.81467257  0.81756976  0.56531854     0.21100
H702        H  0.81609816  0.73986741  0.45570839     0.19500
H703        H  0.83345727  0.68514236  0.50210936     0.19400
H704        H  0.79892963  0.87345388  0.51778063     0.15300
C705        C  0.96832971  0.79240075  0.71115556     0.30700
C706        C  0.96829820  0.75813462  0.69272142    -0.35600
C707        C  0.94971376  0.74563311  0.68071052     0.16700
C708        C  0.93237568  0.76557103  0.68624592     0.22500
C709        C  0.93244325  0.80007835  0.70404871    -0.33700
C710        C  0.95095945  0.81240438  0.71622610     0.16600
O711        O  0.98343494  0.80673101  0.72877375    -0.25700
C712        C  0.97559753  0.83639616  0.74501949     0.06400
C713        C  0.95549737  0.84121525  0.73809204    -0.30600
O714        O  0.91648527  0.74727721  0.67540559    -0.22400
C715        C  0.92370562  0.71520481  0.66261627    -0.02400
C716        C  0.94430117  0.71269664  0.66503609    -0.16900
H717        H  0.98161762  0.74138144  0.68964829     0.21100
H718        H  0.91886040  0.81524467  0.70965412     0.19500
H719        H  0.94532158  0.86096002  0.75015543     0.19400
H720        H  0.95377740  0.68935396  0.65764598     0.15300
C721        C  0.80742801  0.41897202  0.49641605     0.30700
C722        C  0.82647338  0.43171549  0.50529841    -0.35600
C723        C  0.82766676  0.45580497  0.53413915     0.16700
C724        C  0.81128928  0.46652406  0.55340155     0.22500
C725        C  0.79219061  0.45298875  0.54494284    -0.33700
C726        C  0.79095222  0.42892686  0.51575496     0.16600
O727        O  0.80274041  0.40215947  0.46696917    -0.25700
C728        C  0.78299730  0.40042328  0.46733109     0.06400
C729        C  0.77482030  0.41646159  0.49726910    -0.30600
O730        O  0.81557884  0.49321844  0.57641004    -0.22400
C731        C  0.83494973  0.49927133  0.57176384    -0.02400
C732        C  0.84316049  0.47686131  0.54581616    -0.16900
H733        H  0.83926786  0.42567558  0.48916722     0.21100
H734        H  0.77907830  0.46268155  0.55856376     0.19500
H735        H  0.75934136  0.42268207  0.50228013     0.19400
H736        H  0.85807353  0.47806878  0.53530673     0.15300
C737        C  0.08886695  0.32728232  0.75164788     0.30700
C738        C  0.10805564  0.31568905  0.76075231    -0.35600
C739        C  0.10926995  0.28475180  0.78311127     0.16700
C740        C  0.09273207  0.26651370  0.79600299     0.22500
C741        C  0.07342469  0.27870103  0.78746820    -0.33700
C742        C  0.07218931  0.30969620  0.76479867     0.16600
O743        O  0.08459468  0.35199506  0.72738224    -0.25700
C744        C  0.06489905  0.35089338  0.72499450     0.06400
C745        C  0.05627480  0.32530590  0.74794420    -0.30600
O746        O  0.09743948  0.23586989  0.81365569    -0.22400
C747        C  0.11722363  0.23461546  0.81193767    -0.02400
C748        C  0.12534664  0.26447055  0.79342959    -0.16900
H749        H  0.12114779  0.32846156  0.74944918     0.21100
H750        H  0.06034056  0.26378174  0.79628374     0.19500
H751        H  0.04086675  0.31670788  0.74936606     0.19400
H752        H  0.14077900  0.26932362  0.78688172     0.15300
C753        C  0.94748521  0.46551975  0.67379560     0.30700
C754        C  0.96057313  0.44627952  0.69631950    -0.35600
C755        C  0.97690095  0.42798137  0.68043662     0.16700
C756        C  0.97986363  0.42837532  0.64490720     0.22500
C757        C  0.96666293  0.44666435  0.62255698    -0.33700
C758        C  0.95068556  0.46521706  0.63833239     0.16600
O759        O  0.93269904  0.48841334  0.68281779    -0.25700
C760        C  0.92657784  0.50266690  0.65255193     0.06400
C761        C  0.93725083  0.48912752  0.62427572    -0.30600
O762        O  0.99705050  0.41382646  0.63560700    -0.22400
C763        C  0.00545433  0.40358091  0.66536381    -0.02400
C764        C  0.99350500  0.41129344  0.69426779    -0.16900
H765        H  0.95884816  0.44742877  0.72427945     0.21100
H766        H  0.96939641  0.44841196  0.59486996     0.19500
H767        H  0.93606322  0.49765557  0.59734498     0.19400
H768        H  0.99718836  0.40790174  0.72146774     0.15300
C769        C  0.30648273  0.98041270  0.40402968     0.30700
C770        C  0.28803655  0.98653230  0.42019433    -0.35600
C771        C  0.28627789  0.01956471  0.44019631     0.16700
C772        C  0.30174049  0.04466487  0.44452311     0.22500
C773        C  0.31992874  0.03941603  0.42700484    -0.33700
C774        C  0.32161421  0.00653177  0.40661209     0.16600
O775        O  0.31235335  0.94857416  0.38936889    -0.25700
C776        C  0.33134584  0.95461932  0.38145497     0.06400
C777        C  0.33787360  0.99034568  0.39128803    -0.30600
O778        O  0.29844439  0.06868672  0.47031611    -0.22400
C779        C  0.28035120  0.05977750  0.48187522    -0.02400
C780        C  0.27210141  0.02957532  0.46380356    -0.16900
H781        H  0.27642619  0.96543373  0.41964274     0.21100
H782        H  0.33246707  0.05792361  0.43137673     0.19500
H783        H  0.35292518  0.00108076  0.39078964     0.19400
H784        H  0.25898682  0.01361606  0.47078977     0.15300
C785        C  0.22611122  0.12135289  0.62911591     0.30700
C786        C  0.22157354  0.14601100  0.65690103    -0.35600
C787        C  0.20905797  0.13158841  0.68316182     0.16700
C788        C  0.20153242  0.09544281  0.68203399     0.22500
C789        C  0.20568432  0.07118597  0.65398930    -0.33700
C790        C  0.21810751  0.08560033  0.62781980     0.16600
O791        O  0.23955351  0.12693395  0.60438207    -0.25700
C792        C  0.23971863  0.09468736  0.58635720     0.06400
C793        C  0.22669515  0.06805548  0.60004937    -0.30600
O794        O  0.19142730  0.08660142  0.71033966    -0.22400
C795        C  0.19232670  0.11747300  0.73012114    -0.02400
C796        C  0.20302737  0.14654588  0.71438269    -0.16900
H797        H  0.22812144  0.17377380  0.65879261     0.21100
H798        H  0.20032192  0.04245543  0.65338553     0.19500
H799        H  0.22533875  0.03867919  0.59274594     0.19400
H800        H  0.20639481  0.17414955  0.72487574     0.15300
C801        C  0.21419235  0.34822637  0.12126870     0.30700
C802        C  0.21523980  0.32428699  0.15047702    -0.35600
C803        C  0.20150883  0.33149839  0.17745354     0.16700
C804        C  0.18785573  0.36043737  0.17571599     0.22500
C805        C  0.18645425  0.38353084  0.14632078    -0.33700
C806        C  0.19999717  0.37617686  0.11944160     0.16600
O807        O  0.22741362  0.35071722  0.09576187    -0.25700
C808        C  0.22130314  0.38014842  0.07703312     0.06400
C809        C  0.20427377  0.39678117  0.09067289    -0.30600
O810        O  0.17790034  0.36505589  0.20495155    -0.22400
C811        C  0.18494300  0.33843989  0.22587628    -0.02400
C812        C  0.19957329  0.31634854  0.21007424    -0.16900
H813        H  0.22668594  0.30305992  0.15290933     0.21100
H814        H  0.17624282  0.40704990  0.14531544     0.19500
H815        H  0.19757990  0.42323682  0.08303984     0.19400
H816        H  0.20824599  0.29393928  0.22157161     0.15300
C817        C  0.09746969  0.36834857  0.50108739     0.30700
C818        C  0.07834525  0.37501539  0.51428680    -0.35600
C819        C  0.07709625  0.38244276  0.55003965     0.16700
C820        C  0.09355074  0.38298715  0.57142190     0.22500
C821        C  0.11277957  0.37732229  0.55802891    -0.33700
C822        C  0.11403356  0.37000475  0.52216343     0.16600
O823        O  0.10184033  0.35896718  0.46880806    -0.25700
C824        C  0.12148702  0.35480502  0.46894263     0.06400
C825        C  0.12994456  0.36158473  0.50141685    -0.30600
O826        O  0.08872493  0.38628428  0.60456211    -0.22400
C827        C  0.06895728  0.38838901  0.60434807    -0.02400
C828        C  0.06093088  0.38661490  0.57107998    -0.16900
H829        H  0.06526843  0.37324683  0.49799649     0.21100
H830        H  0.12575997  0.37720200  0.57462266     0.19500
H831        H  0.14544089  0.35987315  0.50874068     0.19400
H832        H  0.04541434  0.38555257  0.56375326     0.15300
C833        C  0.21588796  0.20873216  0.45186913     0.30700
C834        C  0.22018988  0.19785451  0.48598203    -0.35600
C835        C  0.23062864  0.16406347  0.48972076     0.16700
C836        C  0.23687754  0.14259529  0.46184101     0.22500
C837        C  0.23262624  0.15363036  0.42739427    -0.33700
C838        C  0.22175361  0.18735777  0.42361541     0.16600
O839        O  0.20547835  0.23849977  0.44300798    -0.25700
C840        C  0.20435613  0.23649944  0.40854842     0.06400
C841        C  0.21430056  0.20525798  0.39482605    -0.30600
O842        O  0.24702607  0.11255037  0.47179847    -0.22400
C843        C  0.24690693  0.11467367  0.50651213    -0.02400
C844        C  0.23696798  0.14634878  0.51891107    -0.16900
H845        H  0.21544457  0.21440915  0.50818692     0.21100
H846        H  0.23728390  0.13696486  0.40520944     0.19500
H847        H  0.21542508  0.19657053  0.36788442     0.19400
H848        H  0.23547644  0.15638761  0.54529344     0.15300
C849        C  0.22182355  0.48644869  0.40294320     0.30700
C850        C  0.22487469  0.52333483  0.41572446    -0.35600
C851        C  0.24163729  0.52881195  0.43716874     0.16700
C852        C  0.25456155  0.49994518  0.44512528     0.22500
C853        C  0.25169206  0.46336511  0.43202820    -0.33700
C854        C  0.23487447  0.45783898  0.41111258     0.16600
O855        O  0.20579165  0.47384892  0.38654431    -0.25700
C856        C  0.20862730  0.43668250  0.38440721     0.06400
C857        C  0.22648611  0.42532102  0.39927662    -0.30600
O858        O  0.26712880  0.50917981  0.47000884    -0.22400
C859        C  0.26262356  0.54469373  0.47811526    -0.02400
C860        C  0.24680312  0.55838012  0.45840769    -0.16900
H861        H  0.21414733  0.54553054  0.41136849     0.21100
H862        H  0.26105677  0.44011603  0.43990779     0.19500
H863        H  0.23178189  0.39682203  0.40314306     0.19400
H864        H  0.23856311  0.58420121  0.46257717     0.15300
C865        C  0.94119617  0.58762839  0.46737947     0.30700
C866        C  0.95911911  0.57499670  0.45264909    -0.35600
C867        C  0.96053709  0.57744526  0.41630890     0.16700
C868        C  0.94550755  0.59206713  0.39601512     0.22500
C869        C  0.92752195  0.60424607  0.41066829    -0.33700
C870        C  0.92596042  0.60111758  0.44688951     0.16600
O871        O  0.93660192  0.58772933  0.50074494    -0.25700
C872        C  0.91809730  0.60097394  0.50154719     0.06400
C873        C  0.91067650  0.60960447  0.46878980    -0.30600
O874        O  0.95025285  0.59317230  0.36280682    -0.22400
C875        C  0.96841431  0.57845371  0.36165785    -0.02400
C876        C  0.97557805  0.56796706  0.39413779    -0.16900
H877        H  0.97108579  0.56397313  0.46840024     0.21100
H878        H  0.91558173  0.61537168  0.39491403     0.19500
H879        H  0.89617192  0.62060696  0.46216267     0.19400
H880        H  0.98997784  0.55633100  0.40053710     0.15300
C881        C  0.08037191  0.46214473  0.29507042     0.30700
C882        C  0.07218078  0.49294471  0.27688080    -0.35600
C883        C  0.05210395  0.50139428  0.28415128     0.16700
C884        C  0.04108744  0.48102222  0.30786265     0.22500
C885        C  0.04908144  0.45008382  0.32538367    -0.33700
C886        C  0.06891540  0.44162256  0.31799056     0.16600
O887        O  0.09897567  0.44980111  0.29364496    -0.25700
C888        C  0.09913868  0.42082483  0.31571636     0.06400
C889        C  0.08082311  0.41461326  0.33141391    -0.30600
O890        O  0.02336189  0.49539284  0.31333930    -0.22400
C891        C  0.02265142  0.52527003  0.29264060    -0.02400
C892        C  0.04006146  0.53031288  0.27344280    -0.16900
H893        H  0.08093864  0.50966242  0.25905807     0.21100
H894        H  0.04056659  0.43432658  0.34429181     0.19500
H895        H  0.07694449  0.39354207  0.35056937     0.19400
H896        H  0.04377531  0.55327356  0.25614656     0.15300
C897        C  0.74179090  0.52928822  0.00970106     0.30700
C898        C  0.74288754  0.49453598  0.02704015    -0.35600
C899        C  0.72525008  0.48182367  0.04260619     0.16700
C900        C  0.70785416  0.50241906  0.04205384     0.22500
C901        C  0.70679264  0.53728367  0.02496317    -0.33700
C902        C  0.72429181  0.54952598  0.00861876     0.16600
O903        O  0.75544515  0.54307704  0.98862001    -0.25700
C904        C  0.74663367  0.57246740  0.97372473     0.06400
C905        C  0.72721730  0.57777149  0.98519719    -0.30600
O906        O  0.69272066  0.48379262  0.05546890    -0.22400
C907        C  0.70048035  0.45076218  0.06448601    -0.02400
C908        C  0.72062294  0.44779643  0.05696012    -0.16900
H909        H  0.75614578  0.47733519  0.02622195     0.21100
H910        H  0.69294059  0.55248621  0.02250502     0.19500
H911        H  0.71620244  0.59689053  0.97482969     0.19400
H912        H  0.73016826  0.42349460  0.06004378     0.15300
C913        C  0.80714987  0.63502195  0.83590121     0.30700
C914        C  0.81212809  0.65586807  0.80600244    -0.35600
C915        C  0.82434749  0.63755831  0.78145531     0.16700
C916        C  0.83105916  0.60115973  0.78592507     0.22500
C917        C  0.82646949  0.58070256  0.81611569    -0.33700
C918        C  0.81450733  0.59916541  0.84081862     0.16600
O919        O  0.79351346  0.64413630  0.85929703    -0.25700
C920        C  0.79259587  0.61425997  0.88022488     0.06400
C921        C  0.80543762  0.58558098  0.86988485    -0.30600
O922        O  0.84111836  0.58849484  0.75876239    -0.22400
C923        C  0.84107916  0.61723931  0.73654092    -0.02400
C924        C  0.83091638  0.64862393  0.74938503    -0.16900
H925        H  0.80609132  0.68365672  0.80137864     0.21100
H926        H  0.83120652  0.55180826  0.81945885     0.19500
H927        H  0.80583477  0.55689738  0.87938188     0.19400
H928        H  0.82835442  0.67532167  0.73660931     0.15300
C929        C  0.83613904  0.83491988  0.28743548     0.30700
C930        C  0.83946312  0.84033480  0.32317988    -0.35600
C931        C  0.82261898  0.83917566  0.34471007     0.16700
C932        C  0.80376551  0.83322421  0.33180609     0.22500
C933        C  0.80050007  0.82676584  0.29611651    -0.33700
C934        C  0.81735815  0.82811278  0.27456524     0.16600
O935        O  0.84953433  0.83830792  0.26259213    -0.25700
C936        C  0.83931410  0.83355211  0.23325811     0.06400
C937        C  0.81916667  0.82695832  0.23909980    -0.30600
O938        O  0.78989294  0.84107094  0.35495701    -0.22400
C939        C  0.79985364  0.85157576  0.38334291    -0.02400
C940        C  0.82033114  0.85035731  0.37851933    -0.16900
H941        H  0.85400885  0.84743747  0.33320726     0.21100
H942        H  0.78568263  0.82376581  0.28557865     0.19500
H943        H  0.80751418  0.82309886  0.22004523     0.19400
H944        H  0.83162606  0.86227648  0.39529294     0.15300
C945        C  0.95322888  0.84682531  0.90465087     0.30700
C946        C  0.94053217  0.82336080  0.92371184    -0.35600
C947        C  0.93237766  0.83913251  0.95392150     0.16700
C948        C  0.93617742  0.87568011  0.96442413     0.22500
C949        C  0.94919112  0.89897731  0.94564689    -0.33700
C950        C  0.95763326  0.88295846  0.91565371     0.16600
O951        O  0.96174416  0.83830083  0.87484163    -0.25700
C952        C  0.97203844  0.86907502  0.86686541     0.06400
C953        C  0.97021872  0.89774645  0.89142598    -0.30600
O954        O  0.92658294  0.88475351  0.99318413    -0.22400
C955        C  0.91677965  0.85339983  0.00132930    -0.02400
C956        C  0.91988019  0.82406938  0.97793490    -0.16900
H957        H  0.93712234  0.79492601  0.91540398     0.21100
H958        H  0.95241043  0.92756580  0.95372999     0.19500
H959        H  0.97646653  0.92584402  0.89064574     0.19400
H960        H  0.91378233  0.79584440  0.97857294     0.15300
C961        C  0.81004506  0.64589492  0.98322668     0.30700
C962        C  0.82866352  0.66302790  0.98853238    -0.35600
C963        C  0.83009706  0.68772342  0.01719024     0.16700
C964        C  0.81429068  0.69529506  0.03902205     0.22500
C965        C  0.79589275  0.67736668  0.03430616    -0.33700
C966        C  0.79451248  0.65248234  0.00590573     0.16600
O967        O  0.80459903  0.62563174  0.95581620    -0.25700
C968        C  0.78542629  0.61840717  0.96152612     0.06400
C969        C  0.77847051  0.63437587  0.99239931    -0.30600
O970        O  0.81835059  0.72183564  0.06222498    -0.22400
C971        C  0.83713012  0.73116000  0.05552276    -0.02400
C972        C  0.84520742  0.71059228  0.02792076    -0.16900
H973        H  0.84089679  0.65881398  0.97064598     0.21100
H974        H  0.78324419  0.68363580  0.05074260     0.19500
H975        H  0.76332938  0.63585108  0.00177320     0.19400
H976        H  0.85982319  0.71336861  0.01642958     0.15300
C977        C  0.96512193  0.65484512  0.20707674     0.30700
C978        C  0.95335125  0.66096037  0.17736570    -0.35600
C979        C  0.94387682  0.69626551  0.17538716     0.16700
C980        C  0.94580158  0.72339787  0.20099313     0.22500
C981        C  0.95769504  0.71754510  0.23023714    -0.33700
C982        C  0.96722156  0.68260340  0.23204858     0.16600
O983        O  0.97334633  0.62258533  0.21665521    -0.25700
C984        C  0.98097791  0.63025281  0.24787537     0.06400
C985        C  0.97763817  0.66715909  0.25848469    -0.30600
O986        O  0.93488228  0.75343227  0.19514454    -0.22400
C987        C  0.92590336  0.74584926  0.16519419    -0.02400
C988        C  0.93093695  0.71069255  0.15152557    -0.16900
H989        H  0.95109504  0.63925845  0.15792327     0.21100
H990        H  0.95886082  0.73830905  0.25082418     0.19500
H991        H  0.98061103  0.67954817  0.28372521     0.19400
H992        H  0.92550016  0.69745089  0.12798831     0.15300
C993        C  0.81079447  0.98183869  0.04413199     0.30700
C994        C  0.80791597  0.01629839  0.02686683    -0.35600
C995        C  0.78923046  0.02154751  0.01130420     0.16700
C996        C  0.77452154  0.99447425  0.01227048     0.23300
C997        C  0.77721776  0.96049511  0.03028672    -0.33700
C998        C  0.79579747  0.95540684  0.04607288     0.16600
O999        O  0.82766093  0.96946521  0.05745686    -0.25700
C1000       C  0.82331919  0.93483202  0.06848151     0.06400
C1001       C  0.80367259  0.92471282  0.06220917    -0.30600
O1002       O  0.75984324  0.00185089  0.99064923    -0.22400
C1003       C  0.76482060  0.03460648  0.97624679    -0.02400
C1004       C  0.78292991  0.04827890  0.98836892    -0.16900
H1005       H  0.81979451  0.03661172  0.02398851     0.21100
H1006       H  0.76608318  0.93848953  0.03004599     0.19500
H1007       H  0.79657450  0.89784058  0.06700891     0.19400
H1008       H  0.79155680  0.07133456  0.97782041     0.15300
C1009       C  0.09729181  0.09158548  0.00228342     0.30700
C1010       C  0.07816728  0.08543805  0.01570084    -0.35600
C1011       C  0.07699211  0.07879346  0.05155431     0.16700
C1012       C  0.09350783  0.07869408  0.07279354     0.22500
C1013       C  0.11268696  0.08432453  0.05930253    -0.33700
C1014       C  0.11387714  0.09058597  0.02334159     0.16600
O1015       O  0.10171431  0.09878717  0.96959908    -0.25700
C1016       C  0.12140322  0.10214187  0.96952235     0.06400
C1017       C  0.12983157  0.09715834  0.00224391    -0.30600
O1018       O  0.08887530  0.07391709  0.10578693    -0.22400
C1019       C  0.06917436  0.07041670  0.10565775    -0.02400
C1020       C  0.06095606  0.07299288  0.07259335    -0.16900
H1021       H  0.06509412  0.08614155  0.99934744     0.21100
H1022       H  0.12572645  0.08425650  0.07575582     0.19500
H1023       H  0.14536634  0.09844736  0.00940807     0.19400
H1024       H  0.04542249  0.07225745  0.06535790     0.15300
C1025       C  0.10842877  0.16688596  0.28727719     0.30700
C1026       C  0.10926901  0.13460485  0.26627838    -0.35600
C1027       C  0.09097853  0.11871960  0.25690442     0.16700
C1028       C  0.07293793  0.13335638  0.26740729     0.22500
C1029       C  0.07210784  0.16527825  0.28925659    -0.33700
C1030       C  0.09050231  0.18137711  0.29854039     0.16600
O1031       O  0.12368791  0.18827850  0.29590749    -0.25700
C1032       C  0.11556573  0.21690048  0.31321522     0.06400
C1033       C  0.09493948  0.21401661  0.31585161    -0.30600
O1034       O  0.05777831  0.11763045  0.25083433    -0.22400
C1035       C  0.06631127  0.09257618  0.22963336    -0.02400
C1036       C  0.08689199  0.09187722  0.23276870    -0.16900
H1037       H  0.12318745  0.12400911  0.25610754     0.21100
H1038       H  0.05813291  0.17811508  0.29658766     0.19500
H1039       H  0.08466735  0.23405643  0.32720730     0.19400
H1040       H  0.09744628  0.07694007  0.21653435     0.15300
C1041       C  0.98302973  0.00557391  0.18152364     0.30700
C1042       C  0.96989277  0.97990407  0.19740261    -0.35600
C1043       C  0.95301552  0.96960501  0.17793376     0.16700
C1044       C  0.94927716  0.98391065  0.14524755     0.22500
C1045       C  0.96238664  0.00937471  0.12939166    -0.33700
C1046       C  0.97929645  0.01929487  0.14862321     0.16600
O1047       O  0.00032242  0.01727694  0.19393982    -0.25700
C1048       C  0.00777865  0.03848208  0.16847766     0.06400
C1049       C  0.99531607  0.04060274  0.13970684    -0.30600
O1050       O  0.93333702  0.96901558  0.13077470    -0.22400
C1051       C  0.92663448  0.94469489  0.15433610    -0.02400
C1052       C  0.93832622  0.94382196  0.18426691    -0.16900
H1053       H  0.97294197  0.96786948  0.22269082     0.21100
H1054       H  0.95990891  0.01976015  0.10328932     0.19500
H1055       H  0.99803929  0.05469827  0.11521177     0.19400
H1056       H  0.93679139  0.92554674  0.20661160     0.15300
loop_ 
_geom_bond_atom_site_label_1 
_geom_bond_atom_site_label_2 
_geom_bond_distance 
_geom_bond_site_symmetry_2 
_ccdc_geom_bond_type 
C1            N2   1.363       .  A
C1            N6   1.367       .  A
C1         C1048   1.478       .  S
N2            C3   1.357       .  A
C3            N4   1.350       .  A
C3         C1019   1.469       .  S
N4            C5   1.355       .  A
C5            N6   1.364       .  A
C5         C1035   1.474       .  S
Zn7          O11   1.975       .  S
Zn7          O12   2.069       .  S
Zn7          O16   2.044       .  S
Zn7          O23   2.064       .  S
Zn8          O11   1.966       .  S
Zn8          O13   2.008       .  S
Zn8          O15   2.010       .  S
Zn8          O19   2.025       .  S
Zn9          O11   1.966       .  S
Zn9          O14   2.026       .  S
Zn9          O17   2.013       .  S
Zn9          O20   2.019       .  S
Zn10         O11   1.959       .  S
Zn10         O18   2.040       .  S
Zn10         O21   2.001       .  S
Zn10         O22   2.016       .  S
O12          C24   1.279       .  A
O13          C25   1.272       .  A
O14          C26   1.275       .  A
O15          C24   1.272       .  A
O16          C26   1.278       .  A
O17          C25   1.272       .  A
O18          C27   1.274       .  A
O19          C28   1.273       .  A
O20          C27   1.272       .  A
O21          C28   1.271       .  A
O22          C29   1.274       .  A
O23          C29   1.280       .  A
C24         C971   1.481       .  S
C25         C955   1.464       .  S
C26        C1000   1.476       .  S
C27        C1051   1.478       .  S
C28         C987   1.467       .  S
C29         C936   1.479       .  S
N30          C34   1.361       .  A
N30          C31   1.360       .  A
N30         C968   1.445       .  S
C31         C904   1.474       .  S
C31          C32   1.380       .  A
C32          C33   1.372       .  A
C32          H35   1.082       .  S
C33          C34   1.381       .  A
C33          H36   1.082       .  S
C34         C920   1.474       .  S
C37          N38   1.361   1_455  A
C37          N42   1.367       .  A
C37         C891   1.473       .  S
N38          C39   1.354       .  A
C39          N40   1.349       .  A
C39         C875   1.466       .  S
N40          C41   1.354       .  A
C41          N42   1.365   1_655  A
C41         C984   1.466       .  S
Zn43         O47   1.942       .  S
Zn43         O48   2.006       .  S
Zn43         O52   1.994       .  S
Zn43         O59   2.038       .  S
Zn44         O47   1.976       .  S
Zn44         O49   2.029       .  S
Zn44         O51   2.081       .  S
Zn44         O55   2.068       .  S
Zn45         O47   1.981       .  S
Zn45         O50   2.068       .  S
Zn45         O53   2.060       .  S
Zn45         O56   2.045       .  S
Zn46         O47   1.949       .  S
Zn46         O54   2.020       .  S
Zn46         O57   1.983       .  S
Zn46         O58   2.007       .  S
O48          C60   1.273       .  A
O49          C61   1.277       .  A
O50          C62   1.279       .  A
O51          C60   1.280       .  A
O52          C62   1.272       .  A
O53          C61   1.280       .  A
O54          C63   1.273       .  A
O55          C64   1.278       .  A
O56          C63   1.277       .  A
O57          C64   1.270       .  A
O58          C65   1.271       .  A
O59          C65   1.274       .  A
C60         C856   1.480       .  S
C61         C811   1.478       .  S
C62         C840   1.475       .  S
C63        C1032   1.476       .  S
C64         C888   1.477       .  S
C65         C824   1.472       .  S
N66          C70   1.367       .  A
N66          C67   1.362       .  A
N66         C843   1.445       .  S
C67         C779   1.478       .  S
C67          C68   1.379       .  A
C68          C69   1.372       .  A
C68          H71   1.082       .  S
C69          C70   1.381       .  A
C69          H72   1.082       .  S
C70         C792   1.485       .  S
C73          N74   1.366       .  A
C73          N78   1.362       .  A
C73         C763   1.478       .  S
N74          C75   1.365       .  A
C75          N76   1.356       .  A
C75         C744   1.471       .  S
N76          C77   1.351       .  A
C77          N78   1.357       .  A
C77         C827   1.472       .  S
Zn79         O83   1.961       .  S
Zn79         O84   2.015       .  S
Zn79         O88   1.997       .  S
Zn79         O95   2.015       .  S
Zn80         O83   1.958       .  S
Zn80         O85   2.010       .  S
Zn80         O87   2.021       .  S
Zn80         O91   2.021       .  S
Zn81         O83   1.988       .  S
Zn81         O86   2.069       .  S
Zn81         O89   2.054       .  S
Zn81         O92   2.046       .  S
Zn82         O83   1.976       .  S
Zn82         O90   2.050       .  S
Zn82         O93   2.059       .  S
Zn82         O94   2.027       .  S
O84          C96   1.270       .  A
O85          C97   1.274       .  A
O86          C98   1.276       .  A
O87          C96   1.272       .  A
O88          C98   1.271       .  A
O89          C97   1.277       .  A
O90          C99   1.278       .  A
O91         C100   1.274       .  A
O92          C99   1.278       .  A
O93         C100   1.277       .  A
O94         C101   1.275       .  A
O95         C101   1.274       .  A
C96         C872   1.470       .  S
C97         C731   1.470       .  S
C98         C760   1.475       .  S
C99         C923   1.482       .  S
C100        C696   1.483       .  S
C101        C715   1.470       .  S
N102        C106   1.364       .  A
N102        C103   1.364       .  A
N102        C699   1.448       .  S
C103        C683   1.468       .  S
C103        C104   1.379       .  A
C104        C105   1.366       .  A
C104        H107   1.083       .  S
C105        C106   1.379       .  A
C105        H108   1.083       .  S
C106        C939   1.473       .  S
C109        N110   1.365       .  A
C109        N114   1.361   1_455  A
C109        C667   1.471       .  S
N110        C111   1.363   1_455  A
C111        N112   1.354       .  A
C111        C712   1.465       .  S
N112        C113   1.350       .  A
C113        N114   1.355       .  A
C113        C952   1.465       .  S
Zn115       O119   1.964       .  S
Zn115       O120   2.034       .  S
Zn115       O124   2.025       .  S
Zn115       O131   2.025       .  S
Zn116       O119   1.953       .  S
Zn116       O121   2.016       .  S
Zn116       O123   2.008       .  S
Zn116       O127   1.987       .  S
Zn117       O119   1.974       .  S
Zn117       O122   2.063       .  S
Zn117       O125   2.033       .  S
Zn117       O128   2.067       .  S
Zn118       O119   1.981       .  S
Zn118       O126   2.041       .  S
Zn118       O129   2.068       .  S
Zn118       O130   2.051       .  S
O120        C132   1.274       .  A
O121        C133   1.272       .  A
O122        C134   1.279       .  A
O123        C132   1.271       .  A
O124        C134   1.275       .  A
O125        C133   1.276       .  A
O126        C135   1.278       .  A
O127        C136   1.270       .  A
O128        C135   1.281       .  A
O129        C136   1.276       .  A
O130        C137   1.277       .  A
O131        C137   1.275       .  A
C132       C1016   1.471       .  S
C133        C747   1.474       .  S
C134        C635   1.484       .  S
C135        C795   1.486       .  S
C136        C664   1.479       .  S
C137        C651   1.471       .  S
N138        C142   1.363       .  A
N138        C139   1.365       .  A
N138        C632   1.447       .  S
C139        C619   1.475   1_554  S
C139        C140   1.379       .  A
C140        C141   1.369       .  A
C140        H143   1.083       .  S
C141        C142   1.382       .  A
C141        H144   1.083       .  S
C142        C808   1.479       .  S
C145        N146   1.367       .  A
C145        N150   1.362       .  A
C145        C603   1.468       .  S
N146        C147   1.365       .  A
C147        N148   1.352       .  A
C147        C584   1.466       .  S
N148        C149   1.348       .  A
C149        N150   1.353       .  A
C149        C571   1.462       .  S
Zn151       O155   1.965       .  S
Zn151       O156   2.046       .  S
Zn151       O160   2.023       .  S
Zn151       O167   2.026       .  S
Zn152       O155   1.957       .  S
Zn152       O157   2.009       .  S
Zn152       O159   2.021       .  S
Zn152       O163   1.987       .  S
Zn153       O155   1.984       .  S
Zn153       O158   2.071       .  S
Zn153       O161   2.040       .  S
Zn153       O164   2.079       .  S
Zn154       O155   1.979       .  S
Zn154       O162   2.029       .  S
Zn154       O165   2.045       .  S
Zn154       O166   2.028       .  S
O156        C168   1.276       .  A
O157        C169   1.273       .  A
O158        C170   1.279       .  A
O159        C168   1.272       .  A
O160        C170   1.275       .  A
O161        C169   1.276       .  A
O162        C171   1.276       .  A
O163        C172   1.269       .  A
O164        C171   1.282       .  A
O165        C172   1.273       .  A
O166        C173   1.274       .  A
O167        C173   1.275       .  A
C168        C520   1.477   1_554  S
C169        C555   1.472       .  S
C170        C536   1.485       .  S
C171        C504   1.486       .  S
C172        C600   1.470       .  S
C173        C907   1.466       .  S
N174        C178   1.361       .  A
N174        C175   1.362       .  A
N174        C539   1.446       .  S
C175       C1003   1.470       .  S
C175        C176   1.380       .  A
C176        C177   1.369       .  A
C176        H179   1.083   1_545  S
C177        C178   1.380       .  A
C177        H180   1.083       .  S
C178        C488   1.472       .  S
C181        N182   1.360       .  A
C181        N186   1.364       .  A
C181        C472   1.471       .  S
N182        C183   1.352       .  A
C183        N184   1.352       .  A
C183        C459   1.466       .  S
N184        C185   1.356       .  A
C185        N186   1.363       .  A
C185        C552   1.465       .  S
Zn187       O191   1.947       .  S
Zn187       O192   2.002       .  S
Zn187       O196   1.973       .  S
Zn187       O203   2.008       .  S
Zn188       O191   1.953       .  S
Zn188       O193   2.027       .  S
Zn188       O195   2.047       .  S
Zn188       O199   2.015       .  S
Zn189       O191   1.978       .  S
Zn189       O194   2.057       .  S
Zn189       O197   2.058       .  S
Zn189       O200   2.038       .  S
Zn190       O191   1.972       .  S
Zn190       O198   2.051       .  S
Zn190       O201   2.055       .  S
Zn190       O202   2.032       .  S
O192        C204   1.270       .  A
O193        C205   1.275       .  A
O194        C206   1.276       .  A
O195        C204   1.275       .  A
O196        C206   1.268       .  A
O197        C205   1.278       .  A
O198        C207   1.279       .  A
O199        C208   1.275       .  A
O200        C207   1.277       .  A
O201        C208   1.278       .  A
O202        C209   1.275       .  A
O203        C209   1.271       .  A
C204        C424   1.472       .  S
C205        C776   1.474       .  S
C206        C475   1.467       .  S
C207        C411   1.481       .  S
C208        C440   1.480       .  S
C209        C587   1.471       .  S
N210        C214   1.365       .  A
N210        C211   1.367       .  A
N210        C443   1.447       .  S
C211        C859   1.478       .  S
C211        C212   1.380       .  A
C212        C213   1.368       .  A
C212        H215   1.083       .  S
C213        C214   1.380       .  A
C213        H216   1.083       .  S
C214        C392   1.482       .  S
C217        N218   1.363       .  A
C217        N222   1.362       .  A
C217        C376   1.470       .  S
N218        C219   1.360       .  A
C219        N220   1.355       .  A
C219        C363   1.461       .  S
N220        C221   1.353       .  A
C221        N222   1.357       .  A
C221        C523   1.474       .  S
Zn223       O227   1.977       .  S
Zn223       O228   2.062       .  S
Zn223       O232   2.060       .  S
Zn223       O239   2.059       .  S
Zn224       O227   1.968       .  S
Zn224       O229   2.011       .  S
Zn224       O231   2.004       .  S
Zn224       O235   2.034       .  S
Zn225       O227   1.959       .  S
Zn225       O230   2.014       .  S
Zn225       O233   2.009       .  S
Zn225       O236   1.987       .  S
Zn226       O227   1.968       .  S
Zn226       O234   2.043       .  S
Zn226       O237   2.022       .  S
Zn226       O238   2.033       .  S
O228        C240   1.279       .  A
O229        C241   1.272       .  A
O230        C242   1.273       .  A
O231        C240   1.272       .  A
O232        C242   1.279       .  A
O233        C241   1.270       .  A
O234        C243   1.274       .  A
O235        C244   1.273       .  A
O236        C243   1.270       .  A
O237        C244   1.275       .  A
O238        C245   1.277       .  A
O239        C245   1.279       .  A
C240        C328   1.476       .  S
C241        C568   1.464       .  S
C242        C616   1.479       .  S
C243        C379   1.471       .  S
C244        C347   1.476       .  S
C245        C395   1.483       .  S
N246        C250   1.363       .  A
N246        C247   1.359       .  A
N246        C331   1.442       .  S
C247        C648   1.475   1_554  S
C247        C248   1.380       .  A
C248        C249   1.372       .  A
C248        H251   1.082       .  S
C249        C250   1.381       .  A
C249        H252   1.082       .  S
C250        C408   1.476       .  S
C253        N254   1.363       .  A
C253        N258   1.366       .  A
C253        C312   1.478       .  S
N254        C255   1.357       .  A
C255        N256   1.352       .  A
C255        C427   1.472       .  S
N256        C257   1.356       .  A
C257        N258   1.364       .  A
C257        C344   1.467       .  S
Zn259       O263   1.965       .  S
Zn259       O264   2.030       .  S
Zn259       O268   2.022       .  S
Zn259       O275   2.009       .  S
Zn260       O263   1.963       .  S
Zn260       O265   2.045       .  S
Zn260       O267   2.001       .  S
Zn260       O271   2.017       .  S
Zn261       O263   1.958       .  S
Zn261       O266   2.013       .  S
Zn261       O269   2.010       .  S
Zn261       O272   2.026       .  S
Zn262       O263   1.975       .  S
Zn262       O270   2.033       .  S
Zn262       O273   2.047       .  S
Zn262       O274   2.057       .  S
O264        C276   1.273       .  A
O265        C277   1.274       .  A
O266        C278   1.272       .  A
O267        C276   1.273       .  A
O268        C278   1.273       .  A
O269        C277   1.271       .  A
O270        C279   1.276       .  A
O271        C280   1.274       .  A
O272        C279   1.275       .  A
O273        C280   1.278       .  A
O274        C281   1.277       .  A
O275        C281   1.273       .  A
C276        C360   1.468       .  S
C277        C315   1.476       .  S
C278        C456   1.466       .  S
C279        C680   1.473       .  S
C280        C491   1.475       .  S
C281        C299   1.479       .  S
N282        C286   1.364       .  A
N282        C283   1.364       .  A
N282        C296   1.443       .  S
C283        C728   1.478       .  S
C283        C284   1.380       .  A
C284        C285   1.369       .  A
C284        H287   1.082       .  S
C285        C286   1.380       .  A
C285        H288   1.083       .  S
C286        C507   1.481       .  S
C289        C294   1.381       .  A
C289        C290   1.403       .  A
C289        O295   1.321       .  A
C290        C291   1.403       .  A
C290        H301   1.082       .  S
C291        C300   1.359       .  A
C291        C292   1.380       .  A
C292        C293   1.408       .  A
C292        O298   1.325       .  A
C293        C294   1.409       .  A
C293        H302   1.082       .  S
C294        C297   1.365       .  A
O295        C296   1.330       .  A
C296        C297   1.396       .  A
C297        H303   1.082       .  S
O298        C299   1.334       .  A
C299        C300   1.392       .  A
C300        H304   1.083       .  S
C305        C310   1.380       .  A
C305        C306   1.411       .  A
C305        O311   1.327       .  A
C306        C307   1.411       .  A
C306        H317   1.083       .  S
C307        C316   1.371   1_565  A
C307        C308   1.380       .  A
C308        C309   1.400       .  A
C308        O314   1.316       .  A
C309        C310   1.399       .  A
C309        H318   1.083       .  S
C310        C313   1.357       .  A
O311        C312   1.335       .  A
C312        C313   1.389       .  A
C313        H319   1.083       .  S
O314        C315   1.330   1_565  A
C315        C316   1.396       .  A
C316        H320   1.082       .  S
C321        C326   1.380       .  A
C321        C322   1.405       .  A
C321        O327   1.318       .  A
C322        C323   1.403       .  A
C322        H333   1.082       .  S
C323        C332   1.365   1_556  A
C323        C324   1.380       .  A
C324        C325   1.407       .  A
C324        O330   1.320       .  A
C325        C326   1.406       .  A
C325        H334   1.082       .  S
C326        C329   1.368       .  A
O327        C328   1.332       .  A
C328        C329   1.393       .  A
C329        H335   1.082       .  S
O330        C331   1.333   1_556  A
C331        C332   1.392       .  A
C332        H336   1.081       .  S
C337        C342   1.380       .  A
C337        C338   1.398       .  A
C337        O343   1.312       .  A
C338        C339   1.396       .  A
C338        H349   1.082       .  S
C339        C348   1.356       .  A
C339        C340   1.379       .  A
C340        C341   1.412       .  A
C340        O346   1.325       .  A
C341        C342   1.411       .  A
C341        H350   1.082       .  S
C342        C345   1.374       .  A
O343        C344   1.327       .  A
C344        C345   1.395       .  A
C345        H351   1.082       .  S
O346        C347   1.336       .  A
C347        C348   1.388       .  A
C348        H352   1.082       .  S
C353        C358   1.380       .  A
C353        C354   1.409       .  A
C353        O359   1.323       .  A
C354        C355   1.408       .  A
C354        H365   1.082       .  S
C355        C364   1.370       .  A
C355        C356   1.381       .  A
C356        C357   1.397       .  A
C356        O362   1.312       .  A
C357        C358   1.395       .  A
C357        H366   1.082       .  S
C358        C361   1.354       .  A
O359        C360   1.333       .  A
C360        C361   1.387       .  A
C361        H367   1.083       .  S
O362        C363   1.326       .  A
C363        C364   1.393       .  A
C364        H368   1.082       .  S
C369        C374   1.381       .  A
C369        C370   1.398       .  A
C369        O375   1.315       .  A
C370        C371   1.398       .  A
C370        H381   1.083       .  S
C371        C380   1.354       .  A
C371        C372   1.380       .  A
C372        C373   1.408       .  A
C372        O378   1.324       .  A
C373        C374   1.408       .  A
C373        H382   1.083       .  S
C374        C377   1.368       .  A
O375        C376   1.328       .  A
C376        C377   1.394       .  A
C377        H383   1.083       .  S
O378        C379   1.333       .  A
C379        C380   1.389       .  A
C380        H384   1.083       .  S
C385        C390   1.379       .  A
C385        C386   1.409       .  A
C385        O391   1.325       .  A
C386        C387   1.409       .  A
C386        H397   1.082       .  S
C387        C396   1.366       .  A
C387        C388   1.380       .  A
C388        C389   1.405       .  A
C388        O394   1.323       .  A
C389        C390   1.406       .  A
C389        H398   1.082       .  S
C390        C393   1.362       .  A
O391        C392   1.334       .  A
C392        C393   1.393       .  A
C393        H399   1.082       .  S
O394        C395   1.332       .  A
C395        C396   1.395       .  A
C396        H400   1.082       .  S
C401        C406   1.379       .  A
C401        C402   1.409       .  A
C401        O407   1.324       .  A
C402        C403   1.408       .  A
C402        H413   1.082       .  S
C403        C412   1.369       .  A
C403        C404   1.379       .  A
C404        C405   1.404       .  A
C404        O410   1.320       .  A
C405        C406   1.404       .  A
C405        H414   1.082       .  S
C406        C409   1.362       .  A
O407        C408   1.334       .  A
C408        C409   1.391       .  A
C409        H415   1.082       .  S
O410        C411   1.332       .  A
C411        C412   1.395       .  A
C412        H416   1.082       .  S
C417        C422   1.380       .  A
C417        C418   1.405       .  A
C417        O423   1.318       .  A
C418        C419   1.403       .  A
C418        H429   1.083       .  S
C419        C428   1.365       .  A
C419        C420   1.380       .  A
C420        C421   1.405       .  A
C420        O426   1.319       .  A
C421        C422   1.404       .  A
C421        H430   1.082       .  S
C422        C425   1.366       .  A
O423        C424   1.332       .  A
C424        C425   1.392       .  A
C425        H431   1.082       .  S
O426        C427   1.332       .  A
C427        C428   1.391       .  A
C428        H432   1.083       .  S
C433        C438   1.379       .  A
C433        C434   1.410       .  A
C433        O439   1.325       .  A
C434        C435   1.410       .  A
C434        H445   1.082       .  S
C435        C444   1.369       .  A
C435        C436   1.379       .  A
C436        C437   1.402       .  A
C436        O442   1.318       .  A
C437        C438   1.402       .  A
C437        H446   1.082       .  S
C438        C441   1.359       .  A
O439        C440   1.335       .  A
C440        C441   1.392       .  A
C441        H447   1.083       .  S
O442        C443   1.331       .  A
C443        C444   1.398       .  A
C444        H448   1.080       .  S
C449        C454   1.381       .  A
C449        C450   1.401       .  A
C449        O455   1.318       .  A
C450        C451   1.401       .  A
C450        H461   1.081       .  S
C451        C460   1.359       .  A
C451        C452   1.380       .  A
C452        C453   1.404       .  A
C452        O458   1.320       .  A
C453        C454   1.404       .  A
C453        H462   1.081       .  S
C454        C457   1.362       .  A
O455        C456   1.329       .  A
C456        C457   1.392       .  A
C457        H463   1.082       .  S
O458        C459   1.331       .  A
C459        C460   1.390       .  A
C460        H464   1.082       .  S
C465        C470   1.380   1_545  A
C465        C466   1.411   1_545  A
C465        O471   1.325       .  A
C466        C467   1.410       .  A
C466        H477   1.082   1_565  S
C467        C476   1.372       .  A
C467        C468   1.381       .  A
C468        C469   1.396       .  A
C468        O474   1.311       .  A
C469        C470   1.394       .  A
C469        H478   1.083       .  S
C470        C473   1.352       .  A
O471        C472   1.334       .  A
C472        C473   1.387   1_545  A
C473        H479   1.083       .  S
O474        C475   1.327       .  A
C475        C476   1.394       .  A
C476        H480   1.082       .  S
C481        C486   1.380       .  A
C481        C482   1.404       .  A
C481        O487   1.316       .  A
C482        C483   1.402       .  A
C482        H493   1.082       .  S
C483        C492   1.365       .  A
C483        C484   1.380       .  A
C484        C485   1.406       .  A
C484        O490   1.319       .  A
C485        C486   1.405       .  A
C485        H494   1.082       .  S
C486        C489   1.368       .  A
O487        C488   1.331       .  A
C488        C489   1.391       .  A
C489        H495   1.082       .  S
O490        C491   1.332       .  A
C491        C492   1.392       .  A
C492        H496   1.082       .  S
C497        C502   1.379       .  A
C497        C498   1.405       .  A
C497        O503   1.321       .  A
C498        C499   1.404       .  A
C498        H509   1.081       .  S
C499        C508   1.362       .  A
C499        C500   1.378       .  A
C500        C501   1.412       .  A
C500        O506   1.327       .  A
C501        C502   1.411       .  A
C501        H510   1.081       .  S
C502        C505   1.373       .  A
O503        C504   1.333       .  A
C504        C505   1.397       .  A
C505        H511   1.082       .  S
O506        C507   1.336       .  A
C507        C508   1.393       .  A
C508        H512   1.082       .  S
C513        C518   1.380       .  A
C513        C514   1.407       .  A
C513        O519   1.321       .  A
C514        C515   1.406       .  A
C514        H525   1.082       .  S
C515        C524   1.367       .  A
C515        C516   1.380       .  A
C516        C517   1.404       .  A
C516        O522   1.318       .  A
C517        C518   1.403       .  A
C517        H526   1.082       .  S
C518        C521   1.364       .  A
O519        C520   1.334       .  A
C520        C521   1.391       .  A
C521        H527   1.082       .  S
O522        C523   1.331       .  A
C523        C524   1.393       .  A
C524        H528   1.082       .  S
C529        C534   1.380       .  A
C529        C530   1.409       .  A
C529        O535   1.326       .  A
C530        C531   1.409   1_554  A
C530        H541   1.082       .  S
C531        C540   1.366       .  A
C531        C532   1.380       .  A
C532        C533   1.405       .  A
C532        O538   1.322       .  A
C533        C534   1.406   1_556  A
C533        H542   1.083       .  S
C534        C537   1.363       .  A
O535        C536   1.334       .  A
C536        C537   1.394       .  A
C537        H543   1.083   1_554  S
O538        C539   1.332       .  A
C539        C540   1.395       .  A
C540        H544   1.082   1_556  S
C545        C550   1.381       .  A
C545        C546   1.405       .  A
C545        O551   1.322       .  A
C546        C547   1.405       .  A
C546        H557   1.082       .  S
C547        C556   1.362       .  A
C547        C548   1.381       .  A
C548        C549   1.401       .  A
C548        O554   1.319       .  A
C549        C550   1.402       .  A
C549        H558   1.082       .  S
C550        C553   1.357       .  A
O551        C552   1.331       .  A
C552        C553   1.390       .  A
C553        H559   1.083       .  S
O554        C555   1.330       .  A
C555        C556   1.393       .  A
C556        H560   1.082       .  S
C561        C566   1.380   1_556  A
C561        C562   1.406   1_556  A
C561        O567   1.319       .  A
C562        C563   1.405       .  A
C562        H573   1.081       .  S
C563        C572   1.366       .  A
C563        C564   1.381       .  A
C564        C565   1.398       .  A
C564        O570   1.312       .  A
C565        C566   1.397       .  A
C565        H574   1.081       .  S
C566        C569   1.357   1_554  A
O567        C568   1.332       .  A
C568        C569   1.387       .  A
C569        H575   1.082       .  S
O570        C571   1.327       .  A
C571        C572   1.392       .  A
C572        H576   1.082       .  S
C577        C582   1.380       .  A
C577        C578   1.400       .  A
C577        O583   1.311       .  A
C578        C579   1.398       .  A
C578        H589   1.082       .  S
C579        C588   1.360       .  A
C579        C580   1.380       .  A
C580        C581   1.408       .  A
C580        O586   1.320       .  A
C581        C582   1.406       .  A
C581        H590   1.082       .  S
C582        C585   1.371       .  A
O583        C584   1.329       .  A
C584        C585   1.392       .  A
C585        H591   1.082       .  S
O586        C587   1.333       .  A
C587        C588   1.389       .  A
C588        H592   1.082       .  S
C593        C598   1.381       .  A
C593        C594   1.394       .  A
C593        O599   1.311       .  A
C594        C595   1.393       .  A
C594        H605   1.082       .  S
C595        C604   1.351       .  A
C595        C596   1.380       .  A
C596        C597   1.413       .  A
C596        O602   1.327       .  A
C597        C598   1.412       .  A
C597        H606   1.082       .  S
C598        C601   1.373       .  A
O599        C600   1.326       .  A
C600        C601   1.397       .  A
C601        H607   1.082       .  S
O602        C603   1.335       .  A
C603        C604   1.385       .  A
C604        H608   1.082       .  S
C609        C614   1.379       .  A
C609        C610   1.406       .  A
C609        O615   1.320       .  A
C610        C611   1.405       .  A
C610        H621   1.082       .  S
C611        C620   1.366       .  A
C611        C612   1.379       .  A
C612        C613   1.407       .  A
C612        O618   1.320       .  A
C613        C614   1.405       .  A
C613        H622   1.082       .  S
C614        C617   1.367       .  A
O615        C616   1.333       .  A
C616        C617   1.393       .  A
C617        H623   1.082       .  S
O618        C619   1.333       .  A
C619        C620   1.392       .  A
C620        H624   1.082       .  S
C625        C630   1.379       .  A
C625        C626   1.407       .  A
C625        O631   1.323   1_556  A
C626        C627   1.408       .  A
C626        H637   1.082   1_556  S
C627        C636   1.365       .  A
C627        C628   1.380       .  A
C628        C629   1.406       .  A
C628        O634   1.324       .  A
C629        C630   1.406       .  A
C629        H638   1.082       .  S
C630        C633   1.364       .  A
O631        C632   1.333       .  A
C632        C633   1.395   1_554  A
C633        H639   1.081       .  S
O634        C635   1.333       .  A
C635        C636   1.395       .  A
C636        H640   1.083       .  S
C641        C646   1.380       .  A
C641        C642   1.405       .  A
C641        O647   1.320       .  A
C642        C643   1.404       .  A
C642        H653   1.082       .  S
C643        C652   1.364       .  A
C643        C644   1.380       .  A
C644        C645   1.406       .  A
C644        O650   1.322   1_565  A
C645        C646   1.406       .  A
C645        H654   1.082       .  S
C646        C649   1.366       .  A
O647        C648   1.332       .  A
C648        C649   1.392       .  A
C649        H655   1.082       .  S
O650        C651   1.332       .  A
C651        C652   1.390   1_545  A
C652        H656   1.082       .  S
C657        C662   1.379   1_565  A
C657        C658   1.413       .  A
C657        O663   1.329   1_565  A
C658        C659   1.413       .  A
C658        H669   1.081       .  S
C659        C668   1.372       .  A
C659        C660   1.380       .  A
C660        C661   1.397   1_565  A
C660        O666   1.314       .  A
C661        C662   1.397       .  A
C661        H670   1.081       .  S
C662        C665   1.352       .  A
O663        C664   1.336       .  A
C664        C665   1.390       .  A
C665        H671   1.082       .  S
O666        C667   1.327       .  A
C667        C668   1.396       .  A
C668        H672   1.082       .  S
C673        C678   1.380   1_565  A
C673        C674   1.404       .  A
C673        O679   1.319       .  A
C674        C675   1.403       .  A
C674        H685   1.082       .  S
C675        C684   1.363       .  A
C675        C676   1.380       .  A
C676        C677   1.405       .  A
C676        O682   1.318       .  A
C677        C678   1.403   1_565  A
C677        H686   1.082   1_565  S
C678        C681   1.364       .  A
O679        C680   1.331   1_565  A
C680        C681   1.392       .  A
C681        H687   1.082       .  S
O682        C683   1.332       .  A
C683        C684   1.390       .  A
C684        H688   1.082       .  S
C689        C694   1.379       .  A
C689        C690   1.409       .  A
C689        O695   1.326       .  A
C690        C691   1.409       .  A
C690        H701   1.082       .  S
C691        C700   1.366       .  A
C691        C692   1.379       .  A
C692        C693   1.404       .  A
C692        O698   1.321       .  A
C693        C694   1.404       .  A
C693        H702   1.082       .  S
C694        C697   1.361       .  A
O695        C696   1.335       .  A
C696        C697   1.393       .  A
C697        H703   1.083       .  S
O698        C699   1.332       .  A
C699        C700   1.398       .  A
C700        H704   1.080       .  S
C705        C710   1.381       .  A
C705        C706   1.405       .  A
C705        O711   1.323       .  A
C706        C707   1.405       .  A
C706        H717   1.082       .  S
C707        C716   1.362       .  A
C707        C708   1.381       .  A
C708        C709   1.400       .  A
C708        O714   1.318       .  A
C709        C710   1.401       .  A
C709        H718   1.082       .  S
C710        C713   1.356       .  A
O711        C712   1.331       .  A
C712        C713   1.390       .  A
C713        H719   1.083       .  S
O714        C715   1.330       .  A
C715        C716   1.392       .  A
C716        H720   1.082       .  S
C721        C726   1.380       .  A
C721        C722   1.401       .  A
C721        O727   1.317       .  A
C722        C723   1.400       .  A
C722        H733   1.082       .  S
C723        C732   1.358       .  A
C723        C724   1.380       .  A
C724        C725   1.410       .  A
C724        O730   1.326       .  A
C725        C726   1.410       .  A
C725        H734   1.081       .  S
C726        C729   1.371       .  A
O727        C728   1.330       .  A
C728        C729   1.395       .  A
C729        H735   1.082       .  S
O730        C731   1.333       .  A
C731        C732   1.388       .  A
C732        H736   1.082       .  S
C737        C742   1.380       .  A
C737        C738   1.401       .  A
C737        O743   1.314       .  A
C738        C739   1.399       .  A
C738        H749   1.082       .  S
C739        C748   1.360       .  A
C739        C740   1.380       .  A
C740        C741   1.409       .  A
C740        O746   1.322       .  A
C741        C742   1.408       .  A
C741        H750   1.082       .  S
C742        C745   1.370       .  A
O743        C744   1.329       .  A
C744        C745   1.394       .  A
C745        H751   1.082       .  S
O746        C747   1.334       .  A
C747        C748   1.389       .  A
C748        H752   1.082       .  S
C753        C758   1.380       .  A
C753        C754   1.413       .  A
C753        O759   1.330       .  A
C754        C755   1.413       .  A
C754        H765   1.082       .  S
C755        C764   1.373       .  A
C755        C756   1.380       .  A
C756        C757   1.398       .  A
C756        O762   1.315       .  A
C757        C758   1.398       .  A
C757        H766   1.082       .  S
C758        C761   1.354       .  A
O759        C760   1.336       .  A
C760        C761   1.387       .  A
C761        H767   1.083       .  S
O762        C763   1.329   1_655  A
C763        C764   1.397   1_455  A
C764        H768   1.082       .  S
C769        C774   1.380   1_565  A
C769        C770   1.404       .  A
C769        O775   1.321       .  A
C770        C771   1.404   1_565  A
C770        H781   1.082       .  S
C771        C780   1.362       .  A
C771        C772   1.379       .  A
C772        C773   1.409       .  A
C772        O778   1.324       .  A
C773        C774   1.408       .  A
C773        H782   1.082       .  S
C774        C777   1.368   1_545  A
O775        C776   1.331       .  A
C776        C777   1.392       .  A
C777        H783   1.082   1_565  S
O778        C779   1.334       .  A
C779        C780   1.391       .  A
C780        H784   1.083       .  S
C785        C790   1.378       .  A
C785        C786   1.412       .  A
C785        O791   1.327       .  A
C786        C787   1.411       .  A
C786        H797   1.081       .  S
C787        C796   1.372       .  A
C787        C788   1.379       .  A
C788        C789   1.405       .  A
C788        O794   1.321       .  A
C789        C790   1.405       .  A
C789        H798   1.081       .  S
C790        C793   1.362       .  A
O791        C792   1.335       .  A
C792        C793   1.393       .  A
C793        H799   1.082       .  S
O794        C795   1.333       .  A
C795        C796   1.397       .  A
C796        H800   1.082       .  S
C801        C806   1.379       .  A
C801        C802   1.412       .  A
C801        O807   1.327       .  A
C802        C803   1.411       .  A
C802        H813   1.082       .  S
C803        C812   1.372       .  A
C803        C804   1.380       .  A
C804        C805   1.401       .  A
C804        O810   1.318       .  A
C805        C806   1.401       .  A
C805        H814   1.082       .  S
C806        C809   1.358       .  A
O807        C808   1.335       .  A
C808        C809   1.391       .  A
C809        H815   1.083       .  S
O810        C811   1.330       .  A
C811        C812   1.396       .  A
C812        H816   1.082       .  S
C817        C822   1.380       .  A
C817        C818   1.403       .  A
C817        O823   1.317       .  A
C818        C819   1.401       .  A
C818        H829   1.083       .  S
C819        C828   1.363       .  A
C819        C820   1.380       .  A
C820        C821   1.407       .  A
C820        O826   1.319       .  A
C821        C822   1.405       .  A
C821        H830   1.082       .  S
C822        C825   1.367       .  A
O823        C824   1.331       .  A
C824        C825   1.393       .  A
C825        H831   1.082       .  S
O826        C827   1.333       .  A
C827        C828   1.390       .  A
C828        H832   1.083       .  S
C833        C838   1.380       .  A
C833        C834   1.399       .  A
C833        O839   1.313       .  A
C834        C835   1.397       .  A
C834        H845   1.082       .  S
C835        C844   1.357       .  A
C835        C836   1.378       .  A
C836        C837   1.412       .  A
C836        O842   1.324       .  A
C837        C838   1.410       .  A
C837        H846   1.082       .  S
C838        C841   1.373       .  A
O839        C840   1.329       .  A
C840        C841   1.396       .  A
C841        H847   1.082       .  S
O842        C843   1.336       .  A
C843        C844   1.390       .  A
C844        H848   1.078       .  S
C849        C854   1.379       .  A
C849        C850   1.411       .  A
C849        O855   1.327       .  A
C850        C851   1.411       .  A
C850        H861   1.082       .  S
C851        C860   1.372       .  A
C851        C852   1.379       .  A
C852        C853   1.404       .  A
C852        O858   1.318       .  A
C853        C854   1.403       .  A
C853        H862   1.082       .  S
C854        C857   1.361       .  A
O855        C856   1.334       .  A
C856        C857   1.392       .  A
C857        H863   1.083       .  S
O858        C859   1.332       .  A
C859        C860   1.396       .  A
C860        H864   1.082       .  S
C865        C870   1.380       .  A
C865        C866   1.405       .  A
C865        O871   1.319       .  A
C866        C867   1.403       .  A
C866        H877   1.082       .  S
C867        C876   1.364       .  A
C867        C868   1.380       .  A
C868        C869   1.402       .  A
C868        O874   1.316       .  A
C869        C870   1.401       .  A
C869        H878   1.082       .  S
C870        C873   1.362       .  A
O871        C872   1.331       .  A
C872        C873   1.390       .  A
C873        H879   1.082       .  S
O874        C875   1.330       .  A
C875        C876   1.391       .  A
C876        H880   1.082       .  S
C881        C886   1.380       .  A
C881        C882   1.412       .  A
C881        O887   1.328       .  A
C882        C883   1.412       .  A
C882        H893   1.082       .  S
C883        C892   1.372       .  A
C883        C884   1.380       .  A
C884        C885   1.398       .  A
C884        O890   1.314       .  A
C885        C886   1.397       .  A
C885        H894   1.082       .  S
C886        C889   1.353       .  A
O887        C888   1.335       .  A
C888        C889   1.390       .  A
C889        H895   1.083       .  S
O890        C891   1.328       .  A
C891        C892   1.396       .  A
C892        H896   1.082       .  S
C897        C902   1.380       .  A
C897        C898   1.405       .  A
C897        O903   1.320   1_554  A
C898        C899   1.404       .  A
C898        H909   1.081       .  S
C899        C908   1.364       .  A
C899        C900   1.380       .  A
C900        C901   1.404       .  A
C900        O906   1.319       .  A
C901        C902   1.404       .  A
C901        H910   1.081       .  S
C902        C905   1.363   1_554  A
O903        C904   1.331       .  A
C904        C905   1.391       .  A
C905        H911   1.082       .  S
O906        C907   1.330       .  A
C907        C908   1.390       .  A
C908        H912   1.082       .  S
C913        C918   1.379       .  A
C913        C914   1.409       .  A
C913        O919   1.324       .  A
C914        C915   1.408       .  A
C914        H925   1.081       .  S
C915        C924   1.368       .  A
C915        C916   1.379       .  A
C916        C917   1.405       .  A
C916        O922   1.321       .  A
C917        C918   1.405       .  A
C917        H926   1.081       .  S
C918        C921   1.362       .  A
O919        C920   1.334       .  A
C920        C921   1.392       .  A
C921        H927   1.082       .  S
O922        C923   1.332       .  A
C923        C924   1.395       .  A
C924        H928   1.082       .  S
C929        C934   1.379       .  A
C929        C930   1.405       .  A
C929        O935   1.318       .  A
C930        C931   1.404       .  A
C930        H941   1.082       .  S
C931        C940   1.366       .  A
C931        C932   1.379       .  A
C932        C933   1.408       .  A
C932        O938   1.318       .  A
C933        C934   1.405       .  A
C933        H942   1.082       .  S
C934        C937   1.369       .  A
O935        C936   1.332       .  A
C936        C937   1.394       .  A
C937        H943   1.082       .  S
O938        C939   1.333       .  A
C939        C940   1.391       .  A
C940        H944   1.082       .  S
C945        C950   1.381       .  A
C945        C946   1.401       .  A
C945        O951   1.315       .  A
C946        C947   1.399       .  A
C946        H957   1.082       .  S
C947        C956   1.359       .  A
C947        C948   1.380       .  A
C948        C949   1.405       .  A
C948        O954   1.319       .  A
C949        C950   1.403       .  A
C949        H958   1.082       .  S
C950        C953   1.364       .  A
O951        C952   1.329       .  A
C952        C953   1.391       .  A
C953        H959   1.082       .  S
O954        C955   1.331   1_556  A
C955        C956   1.389   1_554  A
C956        H960   1.082       .  S
C961        C966   1.380   1_556  A
C961        C962   1.407       .  A
C961        O967   1.326       .  A
C962        C963   1.409   1_556  A
C962        H973   1.082       .  S
C963        C972   1.364       .  A
C963        C964   1.380       .  A
C964        C965   1.404       .  A
C964        O970   1.323       .  A
C965        C966   1.405       .  A
C965        H974   1.082       .  S
C966        C969   1.359   1_554  A
O967        C968   1.334       .  A
C968        C969   1.394       .  A
C969        H975   1.082   1_556  S
O970        C971   1.332       .  A
C971        C972   1.396       .  A
C972        H976   1.082       .  S
C977        C982   1.380       .  A
C977        C978   1.408       .  A
C977        O983   1.325       .  A
C978        C979   1.408       .  A
C978        H989   1.082       .  S
C979        C988   1.366       .  A
C979        C980   1.381       .  A
C980        C981   1.397       .  A
C980        O986   1.314       .  A
C981        C982   1.397       .  A
C981        H990   1.082       .  S
C982        C985   1.353       .  A
O983        C984   1.333       .  A
C984        C985   1.388       .  A
C985        H991   1.083       .  S
O986        C987   1.328       .  A
C987        C988   1.393       .  A
C988        H992   1.082       .  S
C993        C998   1.380       .  A
C993        C994   1.406   1_565  A
C993        O999   1.322       .  A
C994        C995   1.406       .  A
C994       H1005   1.082       .  S
C995       C1004   1.365   1_554  A
C995        C996   1.380   1_545  A
C996        C997   1.404       .  A
C996       O1002   1.319   1_564  A
C997        C998   1.403       .  A
C997       H1006   1.082       .  S
C998       C1001   1.362       .  A
O999       C1000   1.333       .  A
C1000      C1001   1.391       .  A
C1001      H1007   1.082       .  S
O1002      C1003   1.331       .  A
C1003      C1004   1.392       .  A
C1004      H1008   1.082       .  S
C1009      C1014   1.380       .  A
C1009      C1010   1.403       .  A
C1009      O1015   1.317   1_554  A
C1010      C1011   1.401       .  A
C1010      H1021   1.082   1_554  S
C1011      C1020   1.364       .  A
C1011      C1012   1.380       .  A
C1012      C1013   1.405       .  A
C1012      O1018   1.317       .  A
C1013      C1014   1.403       .  A
C1013      H1022   1.082       .  S
C1014      C1017   1.365       .  A
O1015      C1016   1.330       .  A
C1016      C1017   1.392   1_556  A
C1017      H1023   1.082       .  S
O1018      C1019   1.332       .  A
C1019      C1020   1.390       .  A
C1020      H1024   1.082       .  S
C1025      C1030   1.380       .  A
C1025      C1026   1.400       .  A
C1025      O1031   1.319       .  A
C1026      C1027   1.401       .  A
C1026      H1037   1.082       .  S
C1027      C1036   1.356       .  A
C1027      C1028   1.380       .  A
C1028      C1029   1.409       .  A
C1028      O1034   1.326       .  A
C1029      C1030   1.409       .  A
C1029      H1038   1.082       .  S
C1030      C1033   1.367       .  A
O1031      C1032   1.329       .  A
C1032      C1033   1.396       .  A
C1033      H1039   1.082       .  S
O1034      C1035   1.334       .  A
C1035      C1036   1.391       .  A
C1036      H1040   1.083       .  S
C1041      C1046   1.380       .  A
C1041      C1042   1.409   1_545  A
C1041      O1047   1.325   1_655  A
C1042      C1043   1.409       .  A
C1042      H1053   1.083       .  S
C1043      C1052   1.369       .  A
C1043      C1044   1.380       .  A
C1044      C1045   1.403   1_565  A
C1044      O1050   1.319       .  A
C1045      C1046   1.402       .  A
C1045      H1054   1.083       .  S
C1046      C1049   1.361       .  A
O1047      C1048   1.334       .  A
C1048      C1049   1.391   1_455  A
C1049      H1055   1.083       .  S
O1050      C1051   1.331       .  A
C1051      C1052   1.395       .  A
C1052      H1056   1.083       .  S
