geometry optimzed in LAMMPS
_audit_creation_date              2020-11-30 
_audit_creation_method            'lammps2cif' 
_symmetry_space_group_name_H-M    'P1' 
_symmetry_Int_Tables_number       1 
_symmetry_cell_setting            triclinic 
loop_ 
_symmetry_equiv_pos_as_xyz 
  x,y,z 
_cell_length_a                    32.92087262 
_cell_length_b                    33.25806930263811 
_cell_length_c                    32.88418947367994 
_cell_angle_alpha                 89.76258596043718 
_cell_angle_beta                  89.5686070837715 
_cell_angle_gamma                 90.25782536267785 
loop_ 
_atom_site_label 
_atom_site_type_symbol 
_atom_site_fract_x 
_atom_site_fract_y 
_atom_site_fract_z 
_atom_site_charge 
C1          C  0.28465185  0.73387401  0.48839717     0.47800
H2          H  0.31716483  0.74056623  0.48183692    -0.01300
C3          C  0.20887729  0.71934003  0.50441227     0.47800
H4          H  0.17604649  0.71404771  0.51001424    -0.01300
C5          C  0.26482913  0.70567606  0.45709986    -0.15000
C6          C  0.27796222  0.71464985  0.53088314    -0.14700
C7          C  0.25792110  0.77196723  0.48806862    -0.15100
C8          C  0.22376044  0.70038523  0.46374333    -0.15100
C9          C  0.23766392  0.70496007  0.53882187    -0.14600
C10         C  0.21874478  0.76447781  0.50098333    -0.14900
C11         C  0.77347117  0.71652540  0.00243378     0.47800
H12         H  0.80672161  0.71785164  0.00754064    -0.01300
C13         C  0.69594705  0.71409025  0.98862386     0.47800
H14         H  0.66261040  0.71318645  0.98348910    -0.01300
C15         C  0.75303686  0.75871186  0.00314232    -0.15000
C16         C  0.76223679  0.69878561  0.95962540    -0.14700
C17         C  0.74953614  0.69160984  0.03499946    -0.15100
C18         C  0.71301930  0.75703217  0.99127297    -0.15100
C19         C  0.72075582  0.69571605  0.95370312    -0.14600
C20         C  0.70840208  0.69246622  0.02844993    -0.14900
C21         C  0.21260846  0.49653551  0.20327382     0.47800
H22         H  0.21304607  0.48812486  0.17067743    -0.01300
C23         C  0.21300915  0.51923178  0.27894824     0.47800
H24         H  0.21387708  0.52716433  0.31162060    -0.01300
C25         C  0.25571023  0.49812520  0.22218277    -0.15000
C26         C  0.19433298  0.53941878  0.21082581    -0.14700
C27         C  0.18893484  0.46724126  0.23143252    -0.15100
C28         C  0.25570971  0.51459989  0.26029757    -0.15100
C29         C  0.19204259  0.54995361  0.25119149    -0.14600
C30         C  0.19179483  0.47821295  0.27155796    -0.14900
C31         C  0.48102678  0.21874388  0.21711521     0.47800
H32         H  0.47137532  0.18682943  0.21900791    -0.01300
C33         C  0.50661615  0.29281509  0.21416006     0.47800
H34         H  0.51606949  0.32484936  0.21343906    -0.01300
C35         C  0.48432503  0.23869045  0.25941473    -0.15000
C36         C  0.52398430  0.22402297  0.19683233    -0.14700
C37         C  0.45187801  0.24672136  0.19394706    -0.15100
C38         C  0.50253509  0.27590470  0.25790674    -0.15100
C39         C  0.53606554  0.26350234  0.19272765    -0.14600
C40         C  0.46407993  0.28625693  0.19484797    -0.14900
C41         C  0.27493310  0.24033977  0.51145108     0.47800
H42         H  0.30709447  0.24237267  0.52096130    -0.01300
C43         C  0.20034718  0.23661026  0.48665972     0.47800
H44         H  0.16815875  0.23581178  0.47683321    -0.01300
C45         C  0.25377683  0.28157312  0.51108854    -0.15000
C46         C  0.27074750  0.22355668  0.46736352    -0.14700
C47         C  0.24712969  0.21449015  0.53941161    -0.15100
C48         C  0.21602478  0.28018363  0.49323859    -0.15100
C49         C  0.23076692  0.21867626  0.45563461    -0.14600
C50         C  0.20728730  0.21467294  0.52777777    -0.14900
C51         C  0.71501621  0.50824241  0.20522202     0.47800
H52         H  0.71097346  0.51030825  0.17173705    -0.01300
C53         C  0.72487270  0.50184591  0.28304320     0.47800
H54         H  0.72936106  0.49945369  0.31641538    -0.01300
C55         C  0.69701100  0.54407643  0.22863306    -0.15000
C56         C  0.69644868  0.46925237  0.22359056    -0.14700
C57         C  0.75975143  0.50868382  0.21779512    -0.15100
C58         C  0.70329228  0.54173831  0.27001354    -0.15100
C59         C  0.70021741  0.46648928  0.26515971    -0.14600
C60         C  0.76529916  0.50098111  0.25849276    -0.14900
C61         C  0.00468936  0.29434271  0.28074613     0.47800
H62         H  0.01395137  0.32641968  0.27869518    -0.01300
C63         C  0.98225036  0.21953687  0.28544876     0.47800
H64         H  0.97440195  0.18715867  0.28655462    -0.01300
C65         C  0.03535261  0.26747272  0.30379420    -0.15000
C66         C  0.96189016  0.28854058  0.30125301    -0.14700
C67         C  0.00083374  0.27402143  0.23883745    -0.15100
C68         C  0.02474197  0.22773968  0.30368088    -0.15100
C69         C  0.95105747  0.24825331  0.30597279    -0.14600
C70         C  0.98513064  0.23561494  0.24157162    -0.14900
C71         C  0.77031282  0.01107200  0.19431819     0.47800
H72         H  0.76760139  0.01745601  0.16124575    -0.01300
C73         C  0.77556068  0.99430083  0.27116514     0.47800
H74         H  0.77713447  0.98842822  0.30429206    -0.01300
C75         C  0.72887393  0.00559266  0.21562665    -0.15000
C76         C  0.79372202  0.97170711  0.20318590    -0.14700
C77         C  0.79099588  0.04516174  0.21851334    -0.15100
C78         C  0.73160829  0.99308779  0.25529568    -0.15100
C79         C  0.79816105  0.96383312  0.24385414    -0.14600
C80         C  0.79189259  0.03716003  0.25979751    -0.14900
C81         C  0.78753333  0.78829711  0.50974973     0.47800
H82         H  0.81957222  0.78626467  0.51972450    -0.01300
C83         C  0.71309892  0.79199613  0.48429510     0.47800
H84         H  0.68087867  0.79309994  0.47484708    -0.01300
C85         C  0.75937064  0.81168448  0.53909495    -0.15000
C86         C  0.78355459  0.80833376  0.46688911    -0.14700
C87         C  0.76662509  0.74671211  0.50597822    -0.15100
C88         C  0.71960113  0.81121016  0.52698857    -0.15100
C89         C  0.74366858  0.81229992  0.45468830    -0.14600
C90         C  0.72919830  0.74861158  0.48789383    -0.14900
C91         C  0.89666477  0.82878702  0.31643035     0.88800
C92         C  0.92565020  0.86114321  0.33165724    -0.51400
C93         C  0.90743276  0.89025059  0.35360874     0.11700
C94         C  0.86147397  0.88595880  0.35767222     0.22700
C95         C  0.87327550  0.81367712  0.35527071    -0.52200
C96         C  0.85461255  0.84426202  0.37689148     0.11800
C97         C  0.86462606  0.85282393  0.29216174    -0.51700
C98         C  0.84658596  0.88307456  0.31387304     0.12400
H99         H  0.95811943  0.86154608  0.32563456     0.16900
H100        H  0.84734308  0.91094081  0.37504701     0.02700
H101        H  0.87138611  0.78227083  0.36413378     0.17200
H102        H  0.85802537  0.84728893  0.26037183     0.17000
C103        C  0.79727060  0.17741003  0.38759051     0.88800
C104        C  0.77544140  0.15673920  0.35140766    -0.51400
C105        C  0.80072969  0.13343089  0.32759693     0.11700
C106        C  0.84546862  0.13553080  0.34076280     0.22700
C107        C  0.81840175  0.14271568  0.40901340    -0.52200
C108        C  0.84375075  0.12108337  0.38483741     0.11800
C109        C  0.83204678  0.20237385  0.36773530    -0.51700
C110        C  0.85759102  0.18053641  0.34302276     0.12400
H111        H  0.74276489  0.15752703  0.34734044     0.16900
H112        H  0.86633493  0.11758092  0.32138729     0.02700
H113        H  0.81421137  0.13702839  0.44122292     0.17200
H114        H  0.83640195  0.23405845  0.37412382     0.17000
C115        C  0.81677469  0.89899024  0.68980976     0.88800
C116        C  0.84368480  0.86973175  0.71471318    -0.51400
C117        C  0.86957322  0.84707644  0.69101406     0.11700
C118        C  0.86441361  0.85406541  0.64530741     0.22700
C119        C  0.84650546  0.92235195  0.66291544    -0.52200
C120        C  0.87183792  0.89876228  0.64076138     0.11800
C121        C  0.79410776  0.87176645  0.65922242    -0.51700
C122        C  0.81921711  0.84872639  0.63520874     0.12400
H123        H  0.84408825  0.86901138  0.74770904     0.16900
H124        H  0.88478653  0.83552495  0.62595283     0.02700
H125        H  0.84589563  0.95466078  0.65936250     0.17200
H126        H  0.76138995  0.87245054  0.65574174     0.17000
C127        C  0.17616140  0.11171230  0.31500908     0.88800
C128        C  0.14354043  0.08917749  0.33948435    -0.51400
C129        C  0.11883446  0.11347944  0.36103973     0.11700
C130        C  0.12787000  0.15798107  0.35773131     0.22700
C131        C  0.15137966  0.14252566  0.28919300    -0.52200
C132        C  0.12493162  0.16581762  0.31203588     0.11800
C133        C  0.19803555  0.13816318  0.34716709    -0.51700
C134        C  0.17250454  0.16212612  0.36973896     0.12400
H135        H  0.13963225  0.05689583  0.34096101     0.16900
H136        H  0.10729551  0.17704705  0.37630656     0.02700
H137        H  0.15247931  0.14359825  0.25621680     0.17200
H138        H  0.23020975  0.13554885  0.35365384     0.17000
C139        C  0.09295234  0.19970793  0.68346000     0.88800
C140        C  0.12077416  0.22396801  0.65396335    -0.51400
C141        C  0.14146452  0.20064664  0.62617176     0.11700
C142        C  0.13341113  0.15533328  0.63168730     0.22700
C143        C  0.06639015  0.17405646  0.65628873    -0.52200
C144        C  0.08726270  0.15162204  0.62902834     0.11800
C145        C  0.12183480  0.16857049  0.70355795    -0.51700
C146        C  0.14287297  0.14471405  0.67640977     0.12400
H147        H  0.12302459  0.25653700  0.65438246     0.16900
H148        H  0.14992022  0.13615176  0.60952647     0.02700
H149        H  0.03384051  0.17141801  0.66038827     0.17200
H150        H  0.12422141  0.16520972  0.73626152     0.17000
C151        C  0.18734178  0.83113331  0.59483997     0.88800
C152        C  0.16210832  0.86244181  0.57248130    -0.51400
C153        C  0.13785558  0.88446527  0.59725230     0.11700
C154        C  0.14097713  0.87443544  0.64218083     0.22700
C155        C  0.21094523  0.85624619  0.62681682    -0.52200
C156        C  0.18644681  0.88033775  0.65055498     0.11800
C157        C  0.15603234  0.80620337  0.61997699    -0.51700
C158        C  0.13138179  0.82893920  0.64482546     0.12400
H159        H  0.16259161  0.86622183  0.53965292     0.16900
H160        H  0.12096260  0.89321896  0.66167391     0.02700
H161        H  0.24386846  0.85747358  0.62804553     0.17200
H162        H  0.15312626  0.77385150  0.61699615     0.17000
O163        O  0.02608110  0.06347799  0.42953608    -0.76200
C164        C  0.97933239  0.93859318  0.42403763     0.84900
O165        O  0.90270128  0.05612380  0.49629163    -0.77300
O166        O  0.95589174  0.94715674  0.55802004    -0.78800
O167        O  0.08831992  0.99540587  0.52553386    -0.78600
O168        O  0.06128245  0.08180660  0.48418889    -0.77200
Zn169      Zn  0.98569053  0.02411983  0.44574274     1.55700
O170        O  0.04943803  0.94052591  0.52947480    -0.78600
Cd171      Cd  0.04281257  0.03580296  0.51993318     1.59700
Cd172      Cd  0.95151919  0.04294016  0.53133972     1.59600
O173        O  0.02856749  0.05670575  0.57491091    -0.78600
O174        O  0.99259931  0.01390836  0.49994783    -1.89100
Cd175      Cd  0.99385199  0.95754947  0.51123750     1.59900
O176        O  0.97723167  0.09382282  0.55443972    -0.78600
O177        O  0.97877912  0.92666580  0.46075089    -0.77200
C178        C  0.90205283  0.05750254  0.45773819     0.85300
C179        C  0.05287378  0.08493369  0.44681747     0.85000
O180        O  0.98725386  0.97457639  0.41349244    -0.76200
C181        C  0.08342805  0.95830841  0.53272000     0.85800
O182        O  0.93211772  0.04705192  0.43597004    -0.76300
C183        C  0.00968002  0.08973101  0.57452204     0.85900
C184        C  0.93721314  0.97005841  0.58264386     0.86200
O185        O  0.93482779  0.00784932  0.57838237    -0.78700
C186        C  0.78159724  0.28062461  0.49037290     0.47800
H187        H  0.81520870  0.28212289  0.48697864    -0.01300
C188        C  0.70351428  0.27647165  0.49888268     0.47800
H189        H  0.66992336  0.27452807  0.50186571    -0.01300
C190        C  0.76467261  0.23780949  0.48564222    -0.15000
C191        C  0.76654644  0.29542767  0.53243020    -0.14700
C192        C  0.75888729  0.30461372  0.45780015    -0.15100
C193        C  0.72387757  0.23472562  0.49484145    -0.15100
C194        C  0.72470640  0.29547641  0.53608343    -0.14600
C195        C  0.71747870  0.30150523  0.46090608    -0.14900
C196        C  0.01184640  0.79083916  0.71427757     0.47800
H197        H  0.02106534  0.82286357  0.71574990    -0.01300
C198        C  0.98595895  0.71689577  0.71287522     0.47800
H199        H  0.97628264  0.68492517  0.71264651    -0.01300
C200        C  0.00892830  0.77095244  0.75688481    -0.15000
C201        C  0.96873758  0.78553658  0.69568962    -0.14700
C202        C  0.04085291  0.76303181  0.69022509    -0.15100
C203        C  0.99002894  0.73391941  0.75636160    -0.15100
C204        C  0.95641298  0.74629006  0.69256686    -0.14600
C205        C  0.02832307  0.72345012  0.69176348    -0.14900
C206        C  0.17644980  0.60213184  0.67980490     0.88800
C207        C  0.14828529  0.63124060  0.70345574    -0.51400
C208        C  0.12197431  0.65259641  0.67920301     0.11700
C209        C  0.12766086  0.64384327  0.63356621     0.22700
C210        C  0.14767322  0.57668136  0.65416931    -0.52200
C211        C  0.12279852  0.59837798  0.62983140     0.11800
C212        C  0.19845819  0.62948945  0.64826472    -0.51700
C213        C  0.17285883  0.65116105  0.62372368     0.12400
H214        H  0.14871884  0.63416490  0.73631687     0.16900
H215        H  0.10702591  0.66114684  0.61351052     0.02700
H216        H  0.14742775  0.54428743  0.65413885     0.17200
H217        H  0.23117057  0.62919003  0.64388565     0.17000
C218        C  0.18025899  0.33446972  0.39285644     0.88800
C219        C  0.20681176  0.35983136  0.36319298    -0.51400
C220        C  0.18461541  0.38187977  0.33583113     0.11700
C221        C  0.13876706  0.37479098  0.33887935     0.22700
C222        C  0.15029257  0.36465721  0.41094743    -0.52200
C223        C  0.12864307  0.38490422  0.38236110     0.11800
C224        C  0.15330504  0.30802983  0.36492307    -0.51700
C225        C  0.13089545  0.32948755  0.33710854     0.12400
H226        H  0.23959380  0.36233286  0.36559548     0.16900
H227        H  0.12061462  0.39217913  0.31654955     0.02700
H228        H  0.14379168  0.36817503  0.44304320     0.17200
H229        H  0.15036514  0.27574143  0.36900437     0.17000
C230        C  0.81240344  0.69048882  0.59881584     0.88800
C231        C  0.84513967  0.67003590  0.57334565    -0.51400
C232        C  0.86934118  0.64532650  0.59492561     0.11700
C233        C  0.85937041  0.64281120  0.64041907     0.22700
C234        C  0.78942764  0.65618960  0.62117428    -0.52200
C235        C  0.81420309  0.63082309  0.64277597     0.11800
C236        C  0.83691773  0.71191457  0.63251423    -0.51700
C237        C  0.86235865  0.68681711  0.65364754     0.12400
H238        H  0.84971221  0.67521544  0.54098395     0.16900
H239        H  0.87961360  0.62301294  0.65831677     0.02700
H240        H  0.75666384  0.65253671  0.62021452     0.17200
H241        H  0.83653785  0.74424604  0.63683288     0.17000
C242        C  0.81535055  0.40702491  0.30827598     0.88800
C243        C  0.82657506  0.43197976  0.34558248    -0.51400
C244        C  0.84149141  0.41021390  0.37700230     0.11700
C245        C  0.84462755  0.36530845  0.36874018     0.22700
C246        C  0.85461401  0.38289967  0.29731027    -0.52200
C247        C  0.86991065  0.36071636  0.32945713     0.11800
C248        C  0.78584968  0.37469424  0.32598854    -0.51700
C249        C  0.80091142  0.35366641  0.35844709     0.12400
H250        H  0.82174092  0.46400493  0.34756079     0.16900
H251        H  0.85755380  0.34803053  0.39448161     0.02700
H252        H  0.86825637  0.38304860  0.26718698     0.17200
H253        H  0.75466760  0.37135337  0.31626231     0.17000
C254        C  0.88813963  0.30557917  0.67925015     0.88800
C255        C  0.85210124  0.28233909  0.65924247    -0.51400
C256        C  0.82960043  0.30570085  0.63268073     0.11700
C257        C  0.84388038  0.34960611  0.63111987     0.22700
C258        C  0.91105630  0.32284997  0.64287060    -0.52200
C259        C  0.88824407  0.34626045  0.61825081     0.11800
C260        C  0.86806390  0.34210003  0.70034467    -0.51700
C261        C  0.84463839  0.36521399  0.67501520     0.12400
H262        H  0.84733599  0.25020973  0.66284333     0.16900
H263        H  0.82568441  0.36909986  0.61074572     0.02700
H264        H  0.94287093  0.31644624  0.63752446     0.17200
H265        H  0.87270993  0.34885834  0.73221459     0.17000
C266        C  0.09578133  0.69117222  0.31812169     0.88800
C267        C  0.07101237  0.66369612  0.34604406    -0.51400
C268        C  0.09366863  0.63924644  0.36981270     0.11700
C269        C  0.13955848  0.64402514  0.36438066     0.22700
C270        C  0.12508340  0.71377410  0.34714788    -0.52200
C271        C  0.14776890  0.68908470  0.37217957     0.11800
C272        C  0.12368224  0.66198080  0.29442655    -0.51700
C273        C  0.14639667  0.63684583  0.31850578     0.12400
H274        H  0.03816548  0.66245635  0.34690623     0.16900
H275        H  0.15693413  0.62297538  0.38371983     0.02700
H276        H  0.12662036  0.74634008  0.34866996     0.17200
H277        H  0.12409191  0.66085484  0.26149133     0.17000
O278        O  0.02015359  0.57474717  0.45262930    -0.76200
C279        C  0.93581655  0.56255521  0.56119762     0.84900
O280        O  0.06724485  0.48835699  0.55387912    -0.77300
O281        O  0.93197550  0.43152037  0.53923571    -0.78800
O282        O  0.92207088  0.47710108  0.42381610    -0.78600
O283        O  0.00440624  0.53232798  0.40274519    -0.77200
Zn284      Zn  0.00138623  0.54887413  0.50320426     1.55700
O285        O  0.88755490  0.49316716  0.48007801    -0.78600
Cd286      Cd  0.98112848  0.48604429  0.43617311     1.59700
Cd287      Cd  0.02520020  0.45853082  0.51984113     1.59600
O288        O  0.01268138  0.43629648  0.42109990    -0.78600
O289        O  0.98748119  0.49573238  0.49365400    -1.89100
Cd290      Cd  0.93527597  0.48765188  0.51866377     1.59900
O291        O  0.05108487  0.42576028  0.47617497    -0.78600
O292        O  0.93038683  0.52518768  0.56582996    -0.77200
C293        C  0.06965755  0.52612938  0.55883426     0.85300
C294        C  0.02036736  0.56466717  0.41540902     0.85000
O295        O  0.95712753  0.57718095  0.53214332    -0.76200
C296        C  0.88903928  0.48167200  0.44342246     0.85800
O297        O  0.04655291  0.55056981  0.54067805    -0.76300
C298        C  0.04086186  0.41833550  0.43989453     0.85900
C299        C  0.95826395  0.40875249  0.55502746     0.86200
O300        O  0.99591725  0.41671626  0.55427378    -0.78700
C301        C  0.68371180  0.32553905  0.09748989     0.88800
C302        C  0.65569734  0.35359994  0.07415166    -0.51400
C303        C  0.63243314  0.37714405  0.09843542     0.11700
C304        C  0.63778179  0.37024694  0.14386985     0.22700
C305        C  0.70755763  0.35345096  0.12652127    -0.52200
C306        C  0.68347864  0.37766723  0.15049921     0.11800
C307        C  0.65422280  0.30144211  0.12562342    -0.51700
C308        C  0.62957566  0.32503503  0.14954384     0.12400
H309        H  0.65240738  0.35354298  0.04148190     0.16900
H310        H  0.61713426  0.38907432  0.16237317     0.02700
H311        H  0.74048163  0.35552802  0.12626610     0.17200
H312        H  0.65206711  0.26888622  0.12509773     0.17000
C313        C  0.59873007  0.69473527  0.18758943     0.88800
C314        C  0.62149981  0.71497086  0.15170397    -0.51400
C315        C  0.64505166  0.68907138  0.12915145     0.11700
C316        C  0.64416132  0.64534978  0.14564468     0.22700
C317        C  0.57559884  0.65967060  0.16886133    -0.52200
C318        C  0.59922441  0.63426462  0.14691319     0.11800
C319        C  0.63244765  0.67424224  0.21255638    -0.51700
C320        C  0.65539715  0.64735296  0.19107404     0.12400
H321        H  0.61871140  0.74671016  0.14443617     0.16900
H322        H  0.66312864  0.62401760  0.12795523     0.02700
H323        H  0.54300088  0.65577312  0.17171263     0.17200
H324        H  0.63537819  0.67769451  0.24518873     0.17000
C325        C  0.40175525  0.32036290  0.81711976     0.88800
C326        C  0.42598232  0.34758974  0.84562909    -0.51400
C327        C  0.40245635  0.37096104  0.87009475     0.11700
C328        C  0.35683877  0.36492594  0.86489139     0.22700
C329        C  0.37284302  0.29617876  0.84579765    -0.52200
C330        C  0.34997892  0.31965395  0.87168962     0.11800
C331        C  0.37327302  0.34967196  0.79443566    -0.51700
C332        C  0.34997236  0.37347553  0.81940992     0.12400
H333        H  0.45867425  0.34913663  0.84617997     0.16900
H334        H  0.33813002  0.38422726  0.88512397     0.02700
H335        H  0.37142931  0.26356341  0.84623313     0.17200
H336        H  0.37280326  0.35190398  0.76155869     0.17000
C337        C  0.30521775  0.69249468  0.89041921     0.88800
C338        C  0.28076172  0.65942452  0.86773947    -0.51400
C339        C  0.30476272  0.63229605  0.84681841     0.11700
C340        C  0.35041841  0.64184274  0.84971435     0.22700
C341        C  0.33547802  0.66950915  0.91625992    -0.52200
C342        C  0.35875153  0.64335644  0.89505254     0.11800
C343        C  0.33205437  0.71223212  0.85696666    -0.51700
C344        C  0.35669810  0.68575967  0.83637182     0.12400
H345        H  0.24785331  0.65744201  0.86858369     0.16900
H346        H  0.37021142  0.62044707  0.83299688     0.02700
H347        H  0.33824446  0.67349186  0.94881481     0.17200
H348        H  0.33360689  0.74456324  0.85254503     0.17000
C349        C  0.67949305  0.60508283  0.79406348     0.88800
C350        C  0.65614213  0.58080147  0.82608421    -0.51400
C351        C  0.63486340  0.60327554  0.85299016     0.11700
C352        C  0.63882087  0.64876771  0.84655302     0.22700
C353        C  0.64712285  0.63275593  0.77448787    -0.52200
C354        C  0.62489953  0.65507749  0.80212977     0.11800
C355        C  0.70601260  0.63400722  0.81919429    -0.51700
C356        C  0.68527729  0.65618901  0.84732524     0.12400
H357        H  0.65660792  0.54828461  0.82840482     0.16900
H358        H  0.62201273  0.66769076  0.86853493     0.02700
H359        H  0.64157186  0.63371467  0.74200584     0.17200
H360        H  0.73891046  0.63485905  0.81687439     0.17000
C361        C  0.31112594  0.40066445  0.18343355     0.88800
C362        C  0.34125889  0.37560846  0.20934763    -0.51400
C363        C  0.36707309  0.35187802  0.18651178     0.11700
C364        C  0.35904146  0.35430037  0.14065037     0.22700
C365        C  0.33783842  0.42295765  0.15262290    -0.52200
C366        C  0.36250218  0.39866277  0.13059683     0.11800
C367        C  0.28861593  0.36918537  0.15741902    -0.51700
C368        C  0.31376904  0.34549221  0.13425437     0.12400
H369        H  0.34274638  0.37737002  0.24225227     0.16900
H370        H  0.37930320  0.33517451  0.12178253     0.02700
H371        H  0.33729176  0.45523284  0.14794431     0.17200
H372        H  0.25572982  0.36797072  0.15549684     0.17000
O373        O  0.45463385  0.60686942  0.99668733    -0.76200
C374        C  0.52498844  0.56751586  0.09693680     0.84900
O375        O  0.56195623  0.54023788  0.93490454    -0.77300
O376        O  0.54581063  0.45636897  0.05556178    -0.78800
O377        O  0.40292133  0.49293757  0.02924499    -0.78600
O378        O  0.42323902  0.56052554  0.95944384    -0.77200
Zn379      Zn  0.50443891  0.57576539  0.00876538     1.55700
O380        O  0.44872748  0.46169075  0.06709424    -0.78600
Cd381      Cd  0.44206623  0.51017805  0.98473313     1.59700
Cd382      Cd  0.53448210  0.49514039  0.96538169     1.59600
O383        O  0.44150838  0.46598660  0.94337976    -0.78600
O384        O  0.49622787  0.51981030  0.00341817    -1.89100
Cd385      Cd  0.49891202  0.49381100  0.05568331     1.59900
O386        O  0.50623806  0.45651878  0.92608389    -0.78600
O387        O  0.50981075  0.53277006  0.10164526    -0.77200
C388        C  0.56425730  0.57801012  0.94051998     0.85300
C389        C  0.42893678  0.59669060  0.97002194     0.85000
O390        O  0.52517537  0.58611122  0.06312153    -0.76200
C391        C  0.41230710  0.46804582  0.05676262     0.85800
O392        O  0.54513642  0.59566640  0.96881101    -0.76300
C393        C  0.46874372  0.44803293  0.92301713     0.85900
C394        C  0.57480068  0.44849040  0.03136754     0.86200
O395        O  0.57717090  0.46282172  0.99562188    -0.78700
C396        C  0.28319425  0.51895742  0.71175794     0.47800
H397        H  0.28435571  0.52990632  0.67987977    -0.01300
C398        C  0.28076875  0.49131647  0.78565690     0.47800
H399        H  0.27859782  0.48091030  0.81763460    -0.01300
C400        C  0.23990108  0.51370867  0.72824026    -0.15000
C401        C  0.30354281  0.47685738  0.71642456    -0.14700
C402        C  0.30303830  0.54738081  0.74293348    -0.15100
C403        C  0.23851123  0.49396034  0.76487971    -0.15100
C404        C  0.30560425  0.46415915  0.75647804    -0.14600
C405        C  0.29945333  0.53434598  0.78220224    -0.14900
C406        C  0.68671574  0.68871843  0.39275142     0.88800
C407        C  0.66086944  0.65705110  0.41488047    -0.51400
C408        C  0.63907193  0.63309657  0.38949860     0.11700
C409        C  0.64399695  0.64272316  0.34459970     0.22700
C410        C  0.71248362  0.66400293  0.36184993    -0.52200
C411        C  0.69003170  0.63868461  0.33737605     0.11800
C412        C  0.65561897  0.71153637  0.36625317    -0.51700
C413        C  0.63246108  0.68738420  0.34167425     0.12400
H414        H  0.65771709  0.65507214  0.44750265     0.16900
H415        H  0.62494673  0.62357602  0.32475539     0.02700
H416        H  0.74545616  0.66437023  0.36156778     0.17200
H417        H  0.65104479  0.74368202  0.36874000     0.17000
C418        C  0.67238910  0.40592389  0.68291166     0.88800
C419        C  0.64345757  0.42346087  0.65155623    -0.51400
C420        C  0.62647767  0.39538472  0.62656182     0.11700
C421        C  0.63973998  0.35245516  0.63467703     0.22700
C422        C  0.64652514  0.37357446  0.70536172    -0.52200
C423        C  0.62813018  0.34638723  0.67978501     0.11800
C424        C  0.70331015  0.38207162  0.65772744    -0.51700
C425        C  0.68672825  0.35458718  0.63180363     0.12400
H426        H  0.63776013  0.45549135  0.64895852     0.16900
H427        H  0.62518871  0.33038067  0.61413870     0.02700
H428        H  0.64077623  0.37406879  0.73789913     0.17200
H429        H  0.73560503  0.38873289  0.65808377     0.17000
C430        C  0.39864537  0.68738525  0.67463095     0.88800
C431        C  0.42267108  0.65435841  0.65310201    -0.51400
C432        C  0.39908456  0.62783644  0.63269820     0.11700
C433        C  0.35391929  0.63533634  0.63576273     0.22700
C434        C  0.37149150  0.70624197  0.64036215    -0.52200
C435        C  0.34811536  0.67800499  0.61999966     0.11800
C436        C  0.36812406  0.66357170  0.70183849    -0.51700
C437        C  0.34496903  0.63640355  0.68098432     0.12400
H438        H  0.45518052  0.65051209  0.65492610     0.16900
H439        H  0.33573303  0.61228449  0.61944005     0.02700
H440        H  0.37081448  0.73813445  0.63338212     0.17200
H441        H  0.36572724  0.66715442  0.73448824     0.17000
C442        C  0.31237624  0.60843776  0.30288379     0.88800
C443        C  0.34294538  0.63729823  0.28169683    -0.51400
C444        C  0.36348537  0.66206379  0.30805624     0.11700
C445        C  0.34972208  0.65720958  0.35281650     0.22700
C446        C  0.33715608  0.58730651  0.33578329    -0.52200
C447        C  0.35636806  0.61285667  0.36155057     0.11800
C448        C  0.28387214  0.63640222  0.32681544    -0.51700
C449        C  0.30289871  0.66127745  0.35367538     0.12400
H450        H  0.34894295  0.63700231  0.24919503     0.16900
H451        H  0.36579430  0.67755669  0.37410733     0.02700
H452        H  0.34046538  0.55510068  0.33869648     0.17200
H453        H  0.25101829  0.63464855  0.32474496     0.17000
C454        C  0.60159759  0.31645632  0.30851160     0.88800
C455        C  0.62466185  0.29323274  0.34154574    -0.51400
C456        C  0.65079569  0.31638994  0.36402848     0.11700
C457        C  0.65234810  0.36110996  0.34969480     0.22700
C458        C  0.58175758  0.35158015  0.33064207    -0.52200
C459        C  0.60831072  0.37473577  0.35185619     0.11800
C460        C  0.63510462  0.33660112  0.28234297    -0.51700
C461        C  0.66075185  0.36138039  0.30334949     0.12400
H462        H  0.61960531  0.26146855  0.34758465     0.16900
H463        H  0.67351472  0.38050950  0.36701816     0.02700
H464        H  0.54948533  0.35786919  0.32978374     0.17200
H465        H  0.63541462  0.33526294  0.24936508     0.17000
C466        C  0.31115688  0.32877912  0.60255017     0.88800
C467        C  0.29905662  0.36789618  0.62588621    -0.51400
C468        C  0.33147886  0.38668824  0.64463948     0.11700
C469        C  0.37181136  0.36473508  0.63809891     0.22700
C470        C  0.34529675  0.34164050  0.57371654    -0.52200
C471        C  0.37671923  0.36027676  0.59228650     0.11800
C472        C  0.33350313  0.30249180  0.63480734    -0.51700
C473        C  0.36552987  0.32183737  0.65310853     0.12400
H474        H  0.26821420  0.37915767  0.62736041     0.16900
H475        H  0.39820129  0.37990555  0.65248838     0.02700
H476        H  0.34432875  0.33667776  0.54120781     0.17200
H477        H  0.32605404  0.27122761  0.64098181     0.17000
O478        O  0.46657361  0.40460181  0.48831563    -0.76200
C479        C  0.53963595  0.44958690  0.39804111     0.84900
O480        O  0.54601195  0.49144977  0.56520594    -0.77300
O481        O  0.54472018  0.56081906  0.43167017    -0.78800
O482        O  0.40135447  0.52293042  0.46397294    -0.78600
O483        O  0.42420228  0.44456794  0.52267196    -0.77200
Zn484      Zn  0.51231867  0.44349474  0.48392234     1.55700
O485        O  0.44508933  0.54736295  0.41759173    -0.78600
Cd486      Cd  0.44041916  0.50014524  0.50563364     1.59700
Cd487      Cd  0.52862532  0.52671798  0.51962154     1.59600
O488        O  0.44032744  0.53808272  0.55396827    -0.78600
O489        O  0.49426401  0.49638230  0.48398994    -1.89100
Cd490      Cd  0.49845235  0.52056958  0.43110646     1.59900
O491        O  0.49815674  0.57205517  0.54489090    -0.78600
O492        O  0.51653392  0.47886337  0.38940152    -0.77200
C493        C  0.55406371  0.45441729  0.56350743     0.85300
C494        C  0.43633201  0.40998667  0.51174684     0.85000
O495        O  0.54300868  0.43560359  0.43389530    -0.76200
C496        C  0.40945381  0.54378713  0.43252853     0.85800
O497        O  0.54627533  0.43294387  0.53257845    -0.76300
C498        C  0.46374660  0.56761542  0.56164582     0.85900
C499        C  0.57543952  0.56442587  0.45468480     0.86200
O500        O  0.57715573  0.54854317  0.48963123    -0.78700
C501        C  0.50964806  0.78816792  0.77844584     0.47800
H502        H  0.51900998  0.82013173  0.77689564    -0.01300
C503        C  0.48410078  0.71411739  0.77888725     0.47800
H504        H  0.47422736  0.68219652  0.77880514    -0.01300
C505        C  0.53696505  0.76011958  0.80420712    -0.15000
C506        C  0.46541104  0.78319129  0.79499739    -0.14700
C507        C  0.50955403  0.76838579  0.73577124    -0.15100
C508        C  0.52553351  0.72045297  0.80146084    -0.15100
C509        C  0.45303389  0.74379595  0.79761076    -0.14600
C510        C  0.49108968  0.73127544  0.73572448    -0.14900
C511        C  0.27466174  0.99547340  0.21377094     0.47800
H512        H  0.27195826  0.98665766  0.18141547    -0.01300
C513        C  0.27905359  0.01950561  0.28879977     0.47800
H514        H  0.28067396  0.02803897  0.32129761    -0.01300
C515        C  0.30052072  0.96711377  0.24013984    -0.15000
C516        C  0.29293506  0.03851116  0.21894056    -0.14700
C517        C  0.23301168  0.99656860  0.23634205    -0.15100
C518        C  0.30002387  0.97830245  0.28032580    -0.15100
C519        C  0.29793703  0.04973306  0.25860501    -0.14600
C520        C  0.23504946  0.01495470  0.27370372    -0.14900
C521        C  0.20820702  0.79551019  0.00825572     0.47800
H522        H  0.17575069  0.79591448  0.01747723    -0.01300
C523        C  0.28327711  0.79317975  0.98299154     0.47800
H524        H  0.31563960  0.79150131  0.97364246    -0.01300
C525        C  0.22498651  0.75250055  0.00364429    -0.15000
C526        C  0.21569462  0.81610944  0.96601944    -0.14700
C527        C  0.23758042  0.81528342  0.03848499    -0.15100
C528        C  0.26239783  0.75128451  0.98513030    -0.15100
C529        C  0.25578778  0.81721241  0.95400853    -0.14600
C530        C  0.27754082  0.81187215  0.02647111    -0.14900
C531        C  0.31843771  0.90722803  0.80414327     0.88800
C532        C  0.34992347  0.93006001  0.82899647    -0.51400
C533        C  0.37413496  0.90606645  0.85181111     0.11700
C534        C  0.36494938  0.86137822  0.84901311     0.22700
C535        C  0.34389952  0.87585126  0.77966315    -0.52200
C536        C  0.36933761  0.85256945  0.80344501     0.11800
C537        C  0.29528145  0.88156887  0.83627254    -0.51700
C538        C  0.31954521  0.85782550  0.86020781     0.12400
H539        H  0.35152320  0.96244084  0.83118605     0.16900
H540        H  0.38472269  0.84262431  0.86862629     0.02700
H541        H  0.34324486  0.87370399  0.74675637     0.17200
H542        H  0.26259407  0.88328962  0.84013203     0.17000
C543        C  0.67425299  0.83273759  0.90827963     0.88800
C544        C  0.69223037  0.86457460  0.87757841    -0.51400
C545        C  0.66263892  0.88603997  0.85710924     0.11700
C546        C  0.61949998  0.87282378  0.86846358     0.22700
C547        C  0.64601653  0.85761164  0.93517056    -0.52200
C548        C  0.61738344  0.87796566  0.91433582     0.11800
C549        C  0.64553125  0.80613658  0.88213893    -0.51700
C550        C  0.61695890  0.82759817  0.86094124     0.12400
H551        H  0.72450681  0.87012326  0.87353351     0.16900
H552        H  0.59560993  0.89008403  0.85234775     0.02700
H553        H  0.64891893  0.85921579  0.96794831     0.17200
H554        H  0.64791501  0.77363161  0.88080606     0.17000
C555        C  0.39402012  0.82121072  0.17868160     0.88800
C556        C  0.36415740  0.79724297  0.15141246    -0.51400
C557        C  0.34207761  0.82092217  0.12510863     0.11700
C558        C  0.35016863  0.86612357  0.13043669     0.22700
C559        C  0.41872110  0.84684391  0.14882139    -0.52200
C560        C  0.39575221  0.87008111  0.12417522     0.11800
C561        C  0.36669208  0.85205818  0.20101241    -0.51700
C562        C  0.34401080  0.87618796  0.17581711     0.12400
H563        H  0.36221994  0.76465565  0.15153880     0.16900
H564        H  0.33225873  0.88559409  0.10974788     0.02700
H565        H  0.45146223  0.84763280  0.14688037     0.17200
H566        H  0.36662500  0.85510155  0.23377056     0.17000
C567        C  0.30567047  0.18515051  0.10088646     0.88800
C568        C  0.32908702  0.15151576  0.07969406    -0.51400
C569        C  0.34966588  0.12729018  0.10563216     0.11700
C570        C  0.34741054  0.13929881  0.14990186     0.22700
C571        C  0.27941812  0.16266746  0.13342422    -0.52200
C572        C  0.30167858  0.13750656  0.15813849     0.11800
C573        C  0.33815606  0.20770127  0.12564739    -0.51700
C574        C  0.36044207  0.18377763  0.15113924     0.12400
H575        H  0.32951463  0.14601592  0.04735205     0.16900
H576        H  0.36552399  0.11954245  0.17014431     0.02700
H577        H  0.24647444  0.16373591  0.13424885     0.17200
H578        H  0.34319769  0.23972350  0.12226047     0.17000
C579        C  0.60404492  0.19328701  0.81141952     0.88800
C580        C  0.57779011  0.16819093  0.84012451    -0.51400
C581        C  0.59907535  0.14648041  0.86744072     0.11700
C582        C  0.64489940  0.14921249  0.86268852     0.22700
C583        C  0.63261011  0.21777161  0.83940260    -0.52200
C584        C  0.65345401  0.19437200  0.86686872     0.11800
C585        C  0.63201597  0.16189261  0.79102657    -0.51700
C586        C  0.65296911  0.13814111  0.81799546     0.12400
H587        H  0.54497983  0.16622894  0.83818256     0.16900
H588        H  0.66161384  0.13005446  0.88464906     0.02700
H589        H  0.63471530  0.25034554  0.83874446     0.17200
H590        H  0.63363771  0.15814330  0.75830850     0.17000
C591        C  0.66536441  0.09887639  0.18943006     0.88800
C592        C  0.63730938  0.12901885  0.21153115    -0.51400
C593        C  0.62148645  0.15806885  0.18638271     0.11700
C594        C  0.63694857  0.15543490  0.14197419     0.22700
C595        C  0.63964712  0.08347087  0.15413395    -0.52200
C596        C  0.62570161  0.11297417  0.12947382     0.11800
C597        C  0.69825873  0.12518114  0.16903128    -0.51700
C598        C  0.68402576  0.15389960  0.14287947     0.12400
H599        H  0.62949801  0.12667731  0.24358355     0.16900
H600        H  0.62391752  0.17884619  0.12191799     0.02700
H601        H  0.63210786  0.05214549  0.14884703     0.17200
H602        H  0.73029839  0.11839419  0.17145095     0.17000
O603        O  0.46925159  0.99900990  0.90609221    -0.76200
C604        C  0.51985652  0.10004175  0.93414428     0.84900
O605        O  0.56309796  0.96454807  0.01792775    -0.77300
O606        O  0.50763169  0.10435863  0.04809227    -0.78800
O607        O  0.39225663  0.01813327  0.02912182    -0.78600
O608        O  0.42351861  0.96849843  0.94587335    -0.77200
Zn609      Zn  0.50796797  0.01511419  0.94855231     1.55700
O610        O  0.41376380  0.08191869  0.02143058    -0.78600
Cd611      Cd  0.43818776  0.98814425  0.00128529     1.59700
Cd612      Cd  0.52093537  0.00340587  0.04090183     1.59600
O613        O  0.45212047  0.94072177  0.03596220    -0.78600
O614        O  0.48491530  0.02200905  0.99855345    -1.89100
Cd615      Cd  0.47210792  0.07841930  0.00439139     1.59900
O616        O  0.48805944  0.97232265  0.08304562    -0.78600
O617        O  0.48751671  0.10933611  0.95308635    -0.77200
C618        C  0.56697959  0.95519221  0.98075348     0.85300
C619        C  0.43845949  0.97654689  0.91108013     0.85000
O620        O  0.53378316  0.06459284  0.93386527    -0.76200
C621        C  0.38836259  0.05572122  0.03417309     0.85800
O622        O  0.54757028  0.97284064  0.95277742    -0.76300
C623        C  0.46402412  0.94447570  0.07232932     0.85900
C624        C  0.53823153  0.08949975  0.06583742     0.86200
O625        O  0.54693450  0.05228503  0.06459711    -0.78700
C626        C  0.98156303  0.79477823  0.21630922     0.47800
H627        H  0.97164514  0.82660645  0.21724276    -0.01300
C628        C  0.00701872  0.72069640  0.21510163     0.47800
H629        H  0.01654894  0.68876385  0.21488535    -0.01300
C630        C  0.95275583  0.76653038  0.19297896    -0.15000
C631        C  0.02465303  0.78945296  0.19671290    -0.14700
C632        C  0.98465124  0.77504863  0.25909725    -0.15100
C633        C  0.96466952  0.72707789  0.19493775    -0.15100
C634        C  0.03669025  0.75005044  0.19391237    -0.14600
C635        C  0.00303096  0.73798493  0.25842489    -0.14900
C636        C  0.70273387  0.22793952  0.00754186     0.47800
H637        H  0.66971948  0.23270991  0.01281961    -0.01300
C638        C  0.77947920  0.21792107  0.99266352     0.47800
H639        H  0.81249319  0.21387257  0.98692970    -0.01300
C640        C  0.72433368  0.20588664  0.04239640    -0.15000
C641        C  0.71148899  0.20413530  0.96816730    -0.14700
C642        C  0.72643675  0.26778556  0.00276629    -0.15100
C643        C  0.76567750  0.20248689  0.03559774    -0.15100
C644        C  0.75190926  0.19758676  0.96099396    -0.14600
C645        C  0.76618761  0.26225310  0.99085045    -0.14900
C646        C  0.21493729  0.99790179  0.78111469     0.47800
H647        H  0.21558469  0.98861240  0.81351375    -0.01300
C648        C  0.21434742  0.02312324  0.70601315     0.47800
H649        H  0.21459043  0.03279167  0.67368684    -0.01300
C650        C  0.19328918  0.96833814  0.75263253    -0.15000
C651        C  0.19403558  0.03962095  0.77495654    -0.14700
C652        C  0.25790903  0.00203599  0.76210913    -0.15100
C653        C  0.19547958  0.98000486  0.71252236    -0.15100
C654        C  0.19130163  0.05181613  0.73504881    -0.14600
C655        C  0.25765071  0.02049295  0.72450517    -0.14900
C656        C  0.18562247  0.18984856  0.89176643     0.88800
C657        C  0.15605950  0.16375070  0.91617677    -0.51400
C658        C  0.13177546  0.14035682  0.89297907     0.11700
C659        C  0.13890915  0.14389416  0.84748901     0.22700
C660        C  0.20913161  0.16023116  0.86424920    -0.52200
C661        C  0.18456055  0.13540473  0.84169062     0.11800
C662        C  0.15760535  0.21318046  0.86233651    -0.51700
C663        C  0.13220569  0.18905121  0.83984817     0.12400
H664        H  0.15288850  0.16452614  0.94899959     0.16900
H665        H  0.11863703  0.12421728  0.82933260     0.02700
H666        H  0.24203715  0.15828647  0.86362270     0.17200
H667        H  0.15607755  0.24574118  0.86186098     0.17000
C668        C  0.18071407  0.90135225  0.19084839     0.88800
C669        C  0.15396868  0.92780234  0.16477392    -0.51400
C670        C  0.12815872  0.90741842  0.14047657     0.11700
C671        C  0.13119141  0.86186775  0.14353782     0.22700
C672        C  0.15070427  0.87329728  0.21404118    -0.52200
C673        C  0.12403176  0.85314780  0.18906263     0.11800
C674        C  0.20229487  0.87372076  0.15968775    -0.51700
C675        C  0.17638404  0.85350076  0.13418503     0.12400
H676        H  0.15486270  0.96027635  0.16619713     0.16900
H677        H  0.10998165  0.84571470  0.12309030     0.02700
H678        H  0.14976001  0.87071445  0.24694570     0.17200
H679        H  0.23511646  0.87211920  0.15699385     0.17000
C680        C  0.89278944  0.20363793  0.17592094     0.88800
C681        C  0.91216992  0.17696036  0.14366453    -0.51400
C682        C  0.88577499  0.15073656  0.12639994     0.11700
C683        C  0.84213727  0.15368410  0.14124107     0.22700
C684        C  0.85753565  0.22455504  0.15322569    -0.52200
C685        C  0.83179195  0.19826388  0.13365336     0.11800
C686        C  0.87180649  0.17403972  0.20559394    -0.51700
C687        C  0.84568884  0.14724501  0.18777876     0.12400
H688        H  0.94429325  0.17774401  0.13579378     0.16900
H689        H  0.82160718  0.13228978  0.12571850     0.02700
H690        H  0.85547887  0.25695625  0.14976955     0.17200
H691        H  0.87941169  0.17252042  0.23762527     0.17000
C692        C  0.80804893  0.81649728  0.09236041     0.88800
C693        C  0.78186501  0.84591545  0.11811187    -0.51400
C694        C  0.80442240  0.87336180  0.13998108     0.11700
C695        C  0.85041069  0.86767673  0.13486184     0.22700
C696        C  0.83570792  0.84367770  0.06665483    -0.52200
C697        C  0.85738299  0.87051479  0.08901509     0.11800
C698        C  0.83715401  0.79691716  0.12351799    -0.51700
C699        C  0.86001573  0.82378281  0.14535647     0.12400
H700        H  0.74889713  0.84567061  0.11815197     0.16900
H701        H  0.86898552  0.88920662  0.15265549     0.02700
H702        H  0.83756610  0.84171562  0.03379447     0.17200
H703        H  0.84032559  0.76457829  0.12661898     0.17000
C704        C  0.10130047  0.82116572  0.81203073     0.88800
C705        C  0.12915859  0.79820750  0.84197578    -0.51400
C706        C  0.15023350  0.82292415  0.86809143     0.11700
C707        C  0.14239863  0.86786286  0.86067694     0.22700
C708        C  0.07497180  0.84786082  0.83880883    -0.52200
C709        C  0.09618440  0.87160346  0.86443035     0.11800
C710        C  0.13004294  0.85117224  0.78990944    -0.51700
C711        C  0.15116854  0.87621188  0.81535802     0.12400
H712        H  0.13120972  0.76565816  0.84303629     0.16900
H713        H  0.16012038  0.88788414  0.88076528     0.02700
H714        H  0.04201276  0.84851244  0.83752387     0.17200
H715        H  0.13206052  0.85318311  0.75700509     0.17000
C716        C  0.81513305  0.10932807  0.81344190     0.88800
C717        C  0.84252415  0.13941642  0.78931389    -0.51400
C718        C  0.86727993  0.16253166  0.81367457     0.11700
C719        C  0.86086518  0.15463882  0.85919611     0.22700
C720        C  0.84422303  0.08608525  0.84053073    -0.52200
C721        C  0.86841418  0.10984585  0.86347408     0.11800
C722        C  0.79126151  0.13591300  0.84379820    -0.51700
C723        C  0.81534796  0.15927515  0.86827359     0.12400
H724        H  0.84351784  0.14092283  0.75634411     0.16900
H725        H  0.88028774  0.17334913  0.87920627     0.02700
H726        H  0.84425761  0.05366181  0.84338438     0.17200
H727        H  0.75840644  0.13500534  0.84646566     0.17000
O728        O  0.95165779  0.08340617  0.04467514    -0.76200
C729        C  0.05815458  0.09889529  0.96703646     0.84900
O730        O  0.95407793  0.00719469  0.91674359    -0.77300
O731        O  0.08451927  0.96978340  0.97000095    -0.78800
O732        O  0.03710415  0.97043720  0.08069841    -0.78600
O733        O  0.96600994  0.03854877  0.09282659    -0.77200
Zn734      Zn  0.98080778  0.06541112  0.99634201     1.55700
O735        O  0.08299698  0.01452677  0.05816571    -0.78600
Cd736      Cd  0.98755987  0.99462630  0.05632474     1.59700
Cd737      Cd  0.98127184  0.97638159  0.96222364     1.59600
O738        O  0.94478549  0.95228295  0.05136555    -0.78600
O739        O  0.00143206  0.01388330  0.00306659    -1.89100
Cd740      Cd  0.06009276  0.01616431  0.00169779     1.59900
O741        O  0.93946991  0.93664355  0.98589180    -0.78600
O742        O  0.07637757  0.06591919  0.97260511    -0.77200
C743        C  0.93870697  0.04188553  0.92023325     0.85300
C744        C  0.94994749  0.07109401  0.08121300     0.85000
O745        O  0.02239914  0.10550794  0.97968313    -0.76200
C746        C  0.07267289  0.98520343  0.08060993     0.85800
O747        O  0.94433649  0.06398708  0.95101306    -0.76300
C748        C  0.92892247  0.93214999  0.02284006     0.85900
C749        C  0.06716008  0.94608004  0.94551743     0.86200
O750        O  0.02899980  0.94607219  0.93982640    -0.78700
C751        C  0.21082484  0.28669992  0.98374067     0.47800
H752        H  0.17871666  0.28561172  0.97392858    -0.01300
C753        C  0.28519836  0.28778695  0.00995107     0.47800
H754        H  0.31727828  0.28785770  0.01999761    -0.01300
C755        C  0.24014695  0.30960167  0.95501381    -0.15000
C756        C  0.21545025  0.30560991  0.02676022    -0.14700
C757        C  0.23013626  0.24461336  0.98688364    -0.15100
C758        C  0.27981261  0.30834041  0.96760242    -0.15100
C759        C  0.25497509  0.30798027  0.03943837    -0.14600
C760        C  0.26756746  0.24509120  0.00500173    -0.14900
C761        C  0.78701189  0.49146495  0.69976027     0.47800
H762        H  0.79073306  0.48218238  0.66759942    -0.01300
C763        C  0.77786877  0.51598998  0.77430712     0.47800
H764        H  0.77337932  0.52539698  0.80631920    -0.01300
C765        C  0.80449962  0.46164330  0.73135106    -0.15000
C766        C  0.80634695  0.53331790  0.70812551    -0.14700
C767        C  0.74222813  0.49564197  0.71282177    -0.15100
C768        C  0.79767756  0.47363574  0.77073941    -0.15100
C769        C  0.80388270  0.54514869  0.74802731    -0.14600
C770        C  0.73740046  0.51230859  0.75080580    -0.14900
C771        C  0.00525308  0.22450551  0.78641912     0.47800
H772        H  0.01395904  0.19242033  0.78406641    -0.01300
C773        C  0.98194011  0.29898479  0.79105430     0.47800
H774        H  0.97345574  0.33117368  0.79255675    -0.01300
C775        C  0.00010129  0.24496574  0.74443362    -0.15000
C776        C  0.96358049  0.23023374  0.80841038    -0.14700
C777        C  0.03629432  0.25153234  0.80832417    -0.15100
C778        C  0.98328194  0.28281053  0.74731013    -0.15100
C779        C  0.95216561  0.26972479  0.81269778    -0.14600
C780        C  0.02513217  0.29120423  0.80829732    -0.14900
C781        C  0.79838512  0.33086852  0.89813607     0.88800
C782        C  0.82039223  0.36378831  0.92142131    -0.51400
C783        C  0.84542058  0.38685842  0.89821452     0.11700
C784        C  0.84600580  0.37587378  0.85309241     0.22700
C785        C  0.77605005  0.35421291  0.86379359    -0.52200
C786        C  0.80127857  0.37895236  0.84099626     0.11800
C787        C  0.83240175  0.30735069  0.87589434    -0.51700
C788        C  0.85752318  0.33102454  0.85215274     0.12400
H789        H  0.81683145  0.36827969  0.95399223     0.16900
H790        H  0.86612175  0.39457632  0.83357084     0.02700
H791        H  0.74335385  0.35336772  0.85984634     0.17200
H792        H  0.83624232  0.27515895  0.87938465     0.17000
C793        C  0.18445046  0.39815954  0.80681408     0.88800
C794        C  0.15251979  0.37257131  0.78369097    -0.51400
C795        C  0.12602215  0.35189811  0.80908393     0.11700
C796        C  0.13488738  0.35789986  0.85440121     0.22700
C797        C  0.15995428  0.42396281  0.83590275    -0.52200
C798        C  0.13330696  0.40316571  0.85926344     0.11800
C799        C  0.20583195  0.36803265  0.83521191    -0.51700
C800        C  0.17987234  0.34762228  0.86094127     0.12400
H801        H  0.15030860  0.37195372  0.75078983     0.16900
H802        H  0.11388689  0.34146821  0.87528936     0.02700
H803        H  0.16382186  0.45624866  0.83880712     0.17200
H804        H  0.23863464  0.36519679  0.83644557     0.17000
C805        C  0.89110892  0.69292461  0.81392944     0.88800
C806        C  0.85811331  0.71653616  0.83847734    -0.51400
C807        C  0.83370478  0.69248050  0.86328487     0.11700
C808        C  0.84322284  0.64750250  0.85898853     0.22700
C809        C  0.91287261  0.66842592  0.84628544    -0.52200
C810        C  0.88780320  0.64582290  0.87003545     0.11800
C811        C  0.86655305  0.66118909  0.78998191    -0.51700
C812        C  0.84180589  0.63695953  0.81348844     0.12400
H813        H  0.85634283  0.74911386  0.83845613     0.16900
H814        H  0.82395964  0.62716460  0.87780562     0.02700
H815        H  0.94538087  0.66762514  0.85047138     0.17200
H816        H  0.86967090  0.65781625  0.75737760     0.17000
C817        C  0.09210229  0.32027785  0.17503874     0.88800
C818        C  0.06768891  0.34389029  0.14369513    -0.51400
C819        C  0.09102282  0.36613351  0.11768873     0.11700
C820        C  0.13664160  0.36369374  0.12524002     0.22700
C821        C  0.12309900  0.29571851  0.14947911    -0.52200
C822        C  0.14570374  0.31856151  0.12243383     0.11800
C823        C  0.11835071  0.35284994  0.19612509    -0.51700
C824        C  0.14164008  0.37606060  0.17009083     0.12400
H825        H  0.03494869  0.34434204  0.14300885     0.16900
H826        H  0.15519675  0.38239548  0.10398914     0.02700
H827        H  0.12567837  0.26324467  0.15148404     0.17200
H828        H  0.11761633  0.35723100  0.22873321     0.17000
C829        C  0.82012230  0.60518330  0.18393866     0.88800
C830        C  0.85469728  0.58312765  0.16318565    -0.51400
C831        C  0.87683687  0.60613560  0.13730296     0.11700
C832        C  0.86489319  0.65029459  0.13607298     0.22700
C833        C  0.84178700  0.64011803  0.20609087    -0.52200
C834        C  0.86674314  0.66274974  0.18106315     0.11800
C835        C  0.79620167  0.62565916  0.14913404    -0.51700
C836        C  0.81959576  0.64974218  0.12377306     0.12400
H837        H  0.86125373  0.55158315  0.16862923     0.16900
H838        H  0.88443080  0.66883578  0.11556015     0.02700
H839        H  0.84048023  0.64416501  0.23881351     0.17200
H840        H  0.76391572  0.62063604  0.14522540     0.17000
C841        C  0.18341207  0.69407238  0.09975777     0.88800
C842        C  0.20872487  0.66582640  0.12741173    -0.51400
C843        C  0.18542242  0.63962317  0.15052773     0.11700
C844        C  0.13954886  0.64584743  0.14555457     0.22700
C845        C  0.15541747  0.66598711  0.07632592    -0.52200
C846        C  0.13350414  0.64064824  0.10026567     0.11800
C847        C  0.15434310  0.71591443  0.12932604    -0.51700
C848        C  0.13071492  0.69066044  0.15288184     0.12400
H849        H  0.24168379  0.66509900  0.12694688     0.16900
H850        H  0.12042853  0.62520297  0.16433288     0.02700
H851        H  0.15127857  0.66657759  0.04369353     0.17200
H852        H  0.15165308  0.74840577  0.12992775     0.17000
O853        O  0.04878709  0.58295252  0.03028324    -0.76200
C854        C  0.96101725  0.60506206  0.94128947     0.84900
O855        O  0.92223410  0.50641314  0.04603432    -0.77300
O856        O  0.95246471  0.48456614  0.90421203    -0.78800
O857        O  0.07177962  0.47007803  0.94332841    -0.78600
O858        O  0.09384130  0.53643745  0.01273756    -0.77200
Zn859      Zn  0.99640969  0.56415152  0.01212524     1.55700
O860        O  0.04655724  0.51071096  0.89599816    -0.78600
Cd861      Cd  0.05323986  0.49486626  0.99435448     1.59700
Cd862      Cd  0.96006904  0.47732228  0.00729351     1.59600
O863        O  0.05092556  0.45131900  0.03574254    -0.78600
O864        O  0.00003917  0.51537328  0.98542129    -1.89100
Cd865      Cd  0.99465903  0.52292303  0.92696624     1.59900
O866        O  0.98637743  0.43154379  0.03966412    -0.78600
O867        O  0.97266588  0.57784925  0.91695867    -0.77200
C868        C  0.93153170  0.53727139  0.06653433     0.85300
C869        C  0.08471310  0.56953637  0.02908362     0.85000
O870        O  0.96872842  0.60486855  0.97892763    -0.76200
C871        C  0.06894352  0.48173294  0.90681091     0.85800
O872        O  0.96342883  0.55768441  0.05995259    -0.76300
C873        C  0.02347892  0.42790493  0.04923399     0.85900
C874        C  0.92830130  0.46058083  0.92225580     0.86200
O875        O  0.92805395  0.45540474  0.96059103    -0.78700
C876        C  0.48208056  0.79403199  0.28416819     0.47800
H877        H  0.47300699  0.82612674  0.28408615    -0.01300
C878        C  0.50566761  0.71937671  0.28375146     0.47800
H879        H  0.51456090  0.68725797  0.28299496    -0.01300
C880        C  0.48555025  0.77614386  0.24117269    -0.15000
C881        C  0.52471729  0.78693591  0.30376197    -0.14700
C882        C  0.45165226  0.76542360  0.30562927    -0.15100
C883        C  0.50255555  0.73850663  0.24073812    -0.15100
C884        C  0.53563225  0.74720806  0.30613947    -0.14600
C885        C  0.46303516  0.72584493  0.30372606    -0.14900
C886        C  0.51199306  0.21497782  0.71354101     0.47800
H887        H  0.52162141  0.18320664  0.71654015    -0.01300
C888        C  0.48699776  0.28882807  0.70787453     0.47800
H889        H  0.47746054  0.32071205  0.70582191    -0.01300
C890        C  0.54077300  0.24181551  0.68754823    -0.15000
C891        C  0.46856657  0.21887849  0.69496556    -0.14700
C892        C  0.50999925  0.23713664  0.75477579    -0.15100
C893        C  0.52911613  0.28137871  0.68712448    -0.15100
C894        C  0.45670325  0.25825955  0.68970918    -0.14600
C895        C  0.49192200  0.27415364  0.75211051    -0.14900
C896        C  0.71825587  0.99078536  0.71434812     0.47800
H897        H  0.71893794  0.98162573  0.68200944    -0.01300
C898        C  0.71856729  0.01613150  0.78893708     0.47800
H899        H  0.71908837  0.02599684  0.82109953    -0.01300
C900        C  0.76124916  0.99486383  0.73243124    -0.15000
C901        C  0.69822390  0.03263927  0.72001772    -0.14700
C902        C  0.69647340  0.96145926  0.74386712    -0.15100
C903        C  0.76133322  0.01323106  0.76976988    -0.15100
C904        C  0.69575241  0.04461123  0.75977534    -0.14600
C905        C  0.69939207  0.97333211  0.78404522    -0.14900
C906        C  0.31444694  0.11201401  0.67316689     0.88800
C907        C  0.32878927  0.08701672  0.63702438    -0.51400
C908        C  0.35064732  0.10820862  0.60898029     0.11700
C909        C  0.35589379  0.15247675  0.61864725     0.22700
C910        C  0.35418375  0.13218142  0.68986558    -0.52200
C911        C  0.37597038  0.15335744  0.66044654     0.11800
C912        C  0.29076824  0.14696324  0.65299053    -0.51700
C913        C  0.31275603  0.16776114  0.62418219     0.12400
H914        H  0.32370143  0.05488911  0.63489926     0.16900
H915        H  0.37310151  0.16907140  0.59459611     0.02700
H916        H  0.36400620  0.12943058  0.72115754     0.17200
H917        H  0.25891689  0.15301235  0.65912142     0.17000
C918        C  0.60541284  0.81681738  0.68338758     0.88800
C919        C  0.58046161  0.84606556  0.65826930    -0.51400
C920        C  0.60296724  0.86998320  0.63326302     0.11700
C921        C  0.64855630  0.86315401  0.63506135     0.22700
C922        C  0.63146352  0.79355190  0.65185624    -0.52200
C923        C  0.65363893  0.81808672  0.62588428     0.11800
C924        C  0.63611945  0.84412704  0.70561219    -0.51700
C925        C  0.65810241  0.86926677  0.68039330     0.12400
H926        H  0.54755089  0.84749662  0.65974811     0.16900
H927        H  0.66628393  0.88333424  0.61449730     0.02700
H928        H  0.63167900  0.76099155  0.64979036     0.17200
H929        H  0.63811066  0.84498982  0.73851596     0.17000
C930        C  0.68630606  0.17669355  0.59468603     0.88800
C931        C  0.71192792  0.15136002  0.62502776    -0.51400
C932        C  0.68898319  0.12799933  0.65144777     0.11700
C933        C  0.64317684  0.13394573  0.64662045     0.22700
C934        C  0.65784508  0.14604335  0.57519626    -0.52200
C935        C  0.63590180  0.12381142  0.60253389     0.11800
C936        C  0.65759956  0.20170968  0.62224279    -0.51700
C937        C  0.63435430  0.17914331  0.64891670     0.12400
H938        H  0.74486808  0.15029833  0.62403937     0.16900
H939        H  0.62440701  0.11564028  0.66806654     0.02700
H940        H  0.65316967  0.14321401  0.54290130     0.17200
H941        H  0.65463121  0.23403756  0.61906527     0.17000
C942        C  0.30223170  0.82314554  0.39048384     0.88800
C943        C  0.33422350  0.84649738  0.41413034    -0.51400
C944        C  0.35854358  0.86970073  0.39006821     0.11700
C945        C  0.34898741  0.86869729  0.34512820     0.22700
C946        C  0.27901075  0.85520847  0.36584419    -0.52200
C947        C  0.30380727  0.87970886  0.34271284     0.11800
C948        C  0.32782926  0.79986260  0.35847651    -0.51700
C949        C  0.35325416  0.82396789  0.33545486     0.12400
H950        H  0.33800554  0.84427774  0.44682454     0.16900
H951        H  0.36930864  0.88814154  0.32628978     0.02700
H952        H  0.24630943  0.85898963  0.36761076     0.17200
H953        H  0.32878457  0.76725150  0.35730073     0.17000
C954        C  0.68033456  0.89744943  0.30599189     0.88800
C955        C  0.65161561  0.86895241  0.28220612    -0.51400
C956        C  0.62725353  0.84523132  0.30680415     0.11700
C957        C  0.63593012  0.85018692  0.35221231     0.22700
C958        C  0.65240275  0.91953986  0.33571265    -0.52200
C959        C  0.62903322  0.89453989  0.35915064     0.11800
C960        C  0.70513829  0.86939856  0.33398169    -0.51700
C961        C  0.68180623  0.84514269  0.35886408     0.12400
H962        H  0.64878945  0.86967729  0.24934896     0.16900
H963        H  0.61691048  0.83054237  0.37217977     0.02700
H964        H  0.65248439  0.95184406  0.33960197     0.17200
H965        H  0.73803278  0.87073360  0.33555134     0.17000
C966        C  0.39180132  0.19376097  0.32198851     0.88800
C967        C  0.36327854  0.21382998  0.35467906    -0.51400
C968        C  0.34136567  0.18609442  0.37780590     0.11700
C969        C  0.34965259  0.14271530  0.36591131     0.22700
C970        C  0.41744627  0.16418004  0.34632049    -0.52200
C971        C  0.39522263  0.13832973  0.36943936     0.11800
C972        C  0.36302622  0.16601675  0.29731210    -0.51700
C973        C  0.34121601  0.13918969  0.32067333     0.12400
H974        H  0.36045681  0.24607775  0.35852913     0.16900
H975        H  0.33256065  0.12022945  0.38454608     0.02700
H976        H  0.45009938  0.16176653  0.34387314     0.17200
H977        H  0.36123529  0.16684750  0.26436872     0.17000
O978        O  0.53528298  0.92682014  0.54642876    -0.76200
C979        C  0.43741684  0.91313397  0.45686638     0.84900
O980        O  0.55178756  0.99663716  0.42039340    -0.77300
O981        O  0.44182293  0.04529049  0.43779813    -0.78800
O982        O  0.43878289  0.03878830  0.56345518    -0.78600
O983        O  0.50479202  0.96615808  0.59220596    -0.77200
Zn984      Zn  0.51015290  0.94064782  0.49516782     1.55700
O985        O  0.39875216  0.00862951  0.51818551    -0.78600
Cd986      Cd  0.49339845  0.01259719  0.55358229     1.59700
Cd987      Cd  0.53003122  0.02763682  0.46726810     1.59600
O988        O  0.54145639  0.05052446  0.56065111    -0.78600
O989        O  0.49443287  0.99365646  0.49891053    -1.89100
Cd990      Cd  0.44246973  0.99861668  0.47604666     1.59900
O991        O  0.57606465  0.04413250  0.50235391    -0.78600
O992        O  0.43072630  0.94909253  0.44618850    -0.77200
C993        C  0.55972117  0.95952184  0.42055893     0.85300
C994        C  0.52845375  0.93752613  0.58290411     0.85000
O995        O  0.46371486  0.90405049  0.48331175    -0.76200
C996        C  0.40397920  0.03150197  0.54835602     0.85800
O997        O  0.54835451  0.93579621  0.44896751    -0.76300
C998        C  0.57333687  0.05542476  0.53891840     0.85900
C999        C  0.46549176  0.07490946  0.43149444     0.86200
O1000       O  0.50130977  0.07623981  0.44509058    -0.78700
C1001       C  0.41239587  0.10681225  0.39421920    -0.14100
C1002       C  0.45055085  0.10813211  0.40762236    -0.29300
H1003       H  0.39213658  0.08212599  0.40237251     0.14900
H1004       H  0.47059825  0.13346313  0.40149249     0.15500
C1005       C  0.60041863  0.90808820  0.38978581    -0.14100
C1006       C  0.58389446  0.94438073  0.38742395    -0.29300
H1007       H  0.59308875  0.88770390  0.41472354     0.14900
H1008       H  0.58988510  0.96431612  0.36182381     0.15500
C1009       C  0.39233104  0.89281143  0.40485289    -0.14100
C1010       C  0.41249953  0.88258393  0.43841699    -0.29300
H1011       H  0.39971569  0.92012807  0.38800498     0.14900
H1012       H  0.40793167  0.85388224  0.45369261     0.15500
C1013       C  0.60512894  0.09485004  0.59094690    -0.14100
C1014       C  0.60779408  0.07629463  0.55535960    -0.29300
H1015       H  0.57909321  0.09056097  0.61104104     0.14900
H1016       H  0.63475594  0.07907704  0.53627115     0.15500
C1017       C  0.58481774  0.89880945  0.60584114    -0.14100
C1018       C  0.54927141  0.91610957  0.61464387    -0.29300
H1019       H  0.60027544  0.90451770  0.57703595     0.14900
H1020       H  0.53536871  0.91385647  0.64463762     0.15500
C1021       C  0.37432017  0.08977848  0.57665700    -0.14100
C1022       C  0.36938886  0.05150354  0.56594999    -0.29300
H1023       H  0.40072770  0.10657316  0.56576343     0.14900
H1024       H  0.34217464  0.03430803  0.57315805     0.15500
C1025       C  0.68748435  0.06018116  0.68539016    -0.14100
C1026       C  0.70556048  0.09679921  0.67989057    -0.29300
H1027       H  0.66292165  0.05098425  0.66560030     0.14900
H1028       H  0.73197257  0.10462742  0.69785686     0.15500
C1029       C  0.67718768  0.92240827  0.73076646    -0.14100
C1030       C  0.68242047  0.90488522  0.69409330    -0.29300
H1031       H  0.65570220  0.90849737  0.75126025     0.14900
H1032       H  0.70251483  0.91853647  0.67174429     0.15500
C1033       C  0.41566080  0.17599339  0.66322656    -0.14100
C1034       C  0.43726008  0.18543261  0.69647213    -0.29300
H1035       H  0.42672232  0.18869458  0.63471264     0.14900
H1036       H  0.42903453  0.17258068  0.72578589     0.15500
C1037       C  0.59849595  0.19357712  0.67315081    -0.14100
C1038       C  0.57871913  0.22819482  0.66565235    -0.29300
H1039       H  0.58651080  0.17312710  0.69603795     0.14900
H1040       H  0.59045242  0.24781361  0.64185834     0.15500
C1041       C  0.55536285  0.81964132  0.31151808    -0.14100
C1042       C  0.59219788  0.82045787  0.29219911    -0.29300
H1043       H  0.54888286  0.84097682  0.33557151     0.14900
H1044       H  0.59744329  0.80086336  0.26638786     0.15500
C1045       C  0.41206384  0.77782801  0.32478874    -0.14100
C1046       C  0.39044880  0.81014232  0.31322816    -0.29300
H1047       H  0.40016809  0.75897061  0.34916943     0.14900
H1048       H  0.40288129  0.83001532  0.29008698     0.15500
C1049       C  0.10600708  0.61134343  0.08339248    -0.14100
C1050       C  0.11565026  0.59258165  0.04888129    -0.29300
H1051       H  0.07717203  0.60591019  0.09887344     0.14900
H1052       H  0.14581971  0.59467509  0.03533527     0.15500
C1053       C  0.90771173  0.58925786  0.11105788    -0.14100
C1054       C  0.90387544  0.55156816  0.09722728    -0.29300
H1055       H  0.93149049  0.60933487  0.09995079     0.14900
H1056       H  0.87806158  0.53264390  0.10533344     0.15500
C1057       C  0.03568495  0.39646664  0.07741055    -0.14100
C1058       C  0.07526230  0.39232800  0.08592328    -0.29300
H1059       H  0.01223129  0.37840061  0.09192382     0.14900
H1060       H  0.09792400  0.41029757  0.06985578     0.15500
C1061       C  0.90312982  0.62197590  0.90338847    -0.14100
C1062       C  0.93472055  0.63522123  0.92492858    -0.29300
H1063       H  0.89242596  0.59107786  0.90613993     0.14900
H1064       H  0.94468041  0.66641371  0.92420739     0.15500
C1065       C  0.10520206  0.42320314  0.88606459    -0.14100
C1066       C  0.09182813  0.46009628  0.87689481    -0.29300
H1067       H  0.09582252  0.40759218  0.91370909     0.14900
H1068       H  0.09782343  0.47424642  0.84760205     0.15500
C1069       C  0.86972442  0.41805090  0.91718918    -0.14100
C1070       C  0.90014929  0.43714217  0.89821344    -0.29300
H1071       H  0.86432565  0.42305641  0.94945938     0.14900
H1072       H  0.90623387  0.43392048  0.86600370     0.15500
C1073       C  0.05536574  0.32401542  0.81635132    -0.14100
C1074       C  0.09097268  0.32681979  0.79516705    -0.29300
H1075       H  0.04926352  0.34429706  0.84141234     0.14900
H1076       H  0.09539486  0.30836295  0.76832813     0.15500
C1077       C  0.91332866  0.28170930  0.83418932    -0.14100
C1078       C  0.89473888  0.31752255  0.82916938    -0.29300
H1079       H  0.89987927  0.26002382  0.85506735     0.14900
H1080       H  0.90793030  0.33920904  0.80818532     0.15500
C1081       C  0.78745067  0.40925614  0.81013432    -0.14100
C1082       C  0.80488758  0.44638596  0.80650829    -0.29300
H1083       H  0.76376246  0.40044765  0.78910756     0.14900
H1084       H  0.82618619  0.45660393  0.82933294     0.15500
C1085       C  0.82424687  0.58329981  0.76238612    -0.14100
C1086       C  0.81850464  0.60068800  0.79900288    -0.29300
H1087       H  0.84614503  0.59692110  0.74173524     0.14900
H1088       H  0.79747220  0.58697349  0.82046810     0.15500
C1089       C  0.18025260  0.31698187  0.05381140    -0.14100
C1090       C  0.17536459  0.30177686  0.09209838    -0.29300
H1091       H  0.15903434  0.33916905  0.04245967     0.14900
H1092       H  0.19460533  0.27718914  0.10193545     0.15500
C1093       C  0.22800379  0.33015993  0.91635524    -0.14100
C1094       C  0.19260810  0.32372779  0.89706061    -0.29300
H1095       H  0.24902641  0.35227833  0.90390032     0.14900
H1096       H  0.17050368  0.30283776  0.90964558     0.15500
C1097       C  0.89931519  0.19109043  0.79858227    -0.14100
C1098       C  0.93530161  0.19607829  0.81802244    -0.29300
H1099       H  0.89256584  0.20946716  0.77217148     0.14900
H1100       H  0.94357435  0.17595480  0.84263949     0.15500
C1101       C  0.89794190  0.09431885  0.89174048    -0.14100
C1102       C  0.91324294  0.05728855  0.88829290    -0.29300
H1103       H  0.90687678  0.11417982  0.91629157     0.14900
H1104       H  0.90651997  0.03802390  0.86262926     0.15500
C1105       C  0.79453801  0.04153395  0.78181810    -0.14100
C1106       C  0.78750510  0.08141337  0.78880763    -0.29300
H1107       H  0.82462986  0.02900057  0.78535585     0.14900
H1108       H  0.75827675  0.09368506  0.78069869     0.15500
C1109       C  0.07442739  0.89848235  0.89149392    -0.14100
C1110       C  0.09183324  0.91857025  0.92179042    -0.29300
H1111       H  0.04205952  0.90164052  0.88591559     0.14900
H1112       H  0.12389832  0.91607900  0.92847295     0.15500
C1113       C  0.88562951  0.90038073  0.07274087    -0.14100
C1114       C  0.89775214  0.90270217  0.03381982    -0.29300
H1115       H  0.89798682  0.92095248  0.09509843     0.14900
H1116       H  0.88601996  0.88279588  0.01063581     0.15500
C1117       C  0.92957199  0.09589693  0.11068807    -0.14100
C1118       C  0.89949000  0.11983186  0.09892691    -0.29300
H1119       H  0.94052588  0.09621902  0.14181668     0.14900
H1120       H  0.88605356  0.11769753  0.06892096     0.15500
C1121       C  0.10306184  0.96625536  0.10484673    -0.14100
C1122       C  0.09867068  0.92751580  0.11509384    -0.29300
H1123       H  0.13034485  0.98338871  0.11122975     0.14900
H1124       H  0.07291587  0.90994296  0.10457920     0.15500
C1125       C  0.09475367  0.20296614  0.81828816    -0.14100
C1126       C  0.07579926  0.23791542  0.82669498    -0.29300
H1127       H  0.08075011  0.18192379  0.79753406     0.14900
H1128       H  0.08951013  0.25791885  0.84870040     0.15500
C1129       C  0.09983257  0.11588922  0.91057945    -0.14100
C1130       C  0.07906924  0.12870746  0.94307065    -0.29300
H1131       H  0.09556990  0.08570468  0.89867073     0.14900
H1132       H  0.08024648  0.15970818  0.95334879     0.15500
C1133       C  0.21100471  0.21730184  0.91904189    -0.14100
C1134       C  0.21725442  0.21120198  0.95960216    -0.29300
H1135       H  0.22034687  0.24570559  0.90573091     0.14900
H1136       H  0.21221509  0.18193617  0.97339362     0.15500
C1137       C  0.28736344  0.08657192  0.70192615    -0.14100
C1138       C  0.29227927  0.04643950  0.70942498    -0.29300
H1139       H  0.25834775  0.09964664  0.71027896     0.14900
H1140       H  0.32103616  0.03206089  0.70257310     0.15500
C1141       C  0.20047468  0.10329406  0.81410949    -0.14100
C1142       C  0.18219388  0.06693720  0.80925475    -0.29300
H1143       H  0.22749219  0.11027709  0.79620416     0.14900
H1144       H  0.15676513  0.05824167  0.82861757     0.15500
C1145       C  0.17624830  0.91182106  0.80209780    -0.14100
C1146       C  0.17149843  0.93050053  0.76592071    -0.29300
H1147       H  0.19714591  0.92421345  0.82408836     0.14900
H1148       H  0.14951237  0.91823646  0.74489679     0.15500
C1149       C  0.78844557  0.28990705  0.96235681    -0.14100
C1150       C  0.77236512  0.30564501  0.92770353    -0.29300
H1151       H  0.82089631  0.29300118  0.96722730     0.14900
H1152       H  0.74030899  0.30134122  0.92140250     0.15500
C1153       C  0.79607191  0.19059147  0.06707972    -0.14100
C1154       C  0.80187386  0.21136640  0.10209167    -0.29300
H1155       H  0.81532672  0.16507670  0.06018482     0.14900
H1156       H  0.78544157  0.23916815  0.10700026     0.15500
C1157       C  0.76634065  0.17483756  0.92445138    -0.14100
C1158       C  0.80106406  0.18308800  0.90414949    -0.29300
H1159       H  0.74660709  0.15116189  0.91332527     0.14900
H1160       H  0.82104877  0.20650235  0.91540006     0.15500
C1161       C  0.09076889  0.82588910  0.20419178    -0.14100
C1162       C  0.05339185  0.82347125  0.18685535    -0.29300
H1163       H  0.09782782  0.80594286  0.22938449     0.14900
H1164       H  0.04463301  0.84506981  0.16373691     0.15500
C1165       C  0.93651289  0.69341085  0.18335841    -0.14100
C1166       C  0.89721596  0.69221117  0.19654635    -0.29300
H1167       H  0.94801530  0.66994411  0.16358803     0.14900
H1168       H  0.88706520  0.71358643  0.21931738     0.15500
C1169       C  0.89488842  0.81316432  0.17272847    -0.14100
C1170       C  0.91616680  0.77884477  0.16857892    -0.29300
H1171       H  0.90461316  0.83535131  0.19472605     0.14900
H1172       H  0.90669586  0.75805130  0.14512941     0.15500
C1173       C  0.09497167  0.70329578  0.17813422    -0.14100
C1174       C  0.07503641  0.73813387  0.17213182    -0.29300
H1175       H  0.08321921  0.68169315  0.20003832     0.14900
H1176       H  0.08662087  0.75902816  0.14941052     0.15500
C1177       C  0.71166907  0.16931869  0.10974361    -0.14100
C1178       C  0.69986850  0.19425980  0.07965400    -0.29300
H1179       H  0.74158437  0.15613591  0.10853203     0.14900
H1180       H  0.66926093  0.20597066  0.08070608     0.15500
C1181       C  0.56527990  0.11536877  0.08871364    -0.14100
C1182       C  0.60333253  0.10285750  0.09340709    -0.29300
H1183       H  0.55323188  0.14077064  0.10540616     0.14900
H1184       H  0.61458595  0.07721160  0.07629820     0.15500
C1185       C  0.67743703  0.10176725  0.80713468    -0.14100
C1186       C  0.67338144  0.08214823  0.77161728    -0.29300
H1187       H  0.69761713  0.08997109  0.83012438     0.14900
H1188       H  0.65198273  0.09377740  0.74966568     0.15500
C1189       C  0.67977037  0.21037214  0.89984329    -0.14100
C1190       C  0.67959192  0.19411511  0.93775016    -0.29300
H1191       H  0.70067897  0.23475498  0.89252229     0.14900
H1192       H  0.65687769  0.17177317  0.94620696     0.15500
C1193       C  0.57943051  0.12167081  0.89797506    -0.14100
C1194       C  0.54192280  0.13012281  0.91136134    -0.29300
H1195       H  0.59558255  0.09508968  0.90819271     0.14900
H1196       H  0.52691927  0.15824386  0.90408542     0.15500
C1197       C  0.57788656  0.21677280  0.78138376    -0.14100
C1198       C  0.53843921  0.22728185  0.78852552    -0.29300
H1199       H  0.58977825  0.21942892  0.75081262     0.14900
H1200       H  0.52645306  0.22807774  0.81932724     0.15500
C1201       C  0.35686206  0.07056190  0.06030832    -0.14100
C1202       C  0.37022665  0.09115760  0.09241076    -0.29300
H1203       H  0.32657564  0.07464329  0.04811781     0.14900
H1204       H  0.40036566  0.08578810  0.10464952     0.15500
C1205       C  0.28301066  0.21351916  0.07195890    -0.14100
C1206       C  0.28209961  0.21102259  0.03049992    -0.29300
H1207       H  0.26897553  0.23936310  0.08623910     0.14900
H1208       H  0.29254870  0.18492562  0.01418225     0.15500
C1209       C  0.44809856  0.91681656  0.10227566    -0.14100
C1210       C  0.41328588  0.89753782  0.09469289    -0.29300
H1211       H  0.46335605  0.91410164  0.13134974     0.14900
H1212       H  0.39603101  0.90349138  0.06725363     0.15500
C1213       C  0.42041748  0.79640156  0.20805242    -0.14100
C1214       C  0.46182128  0.79260742  0.20634969    -0.29300
H1215       H  0.40442719  0.78264668  0.23349920     0.14900
H1216       H  0.47929760  0.80133541  0.17982853     0.15500
C1217       C  0.66663935  0.92031689  0.82728870    -0.14100
C1218       C  0.69957316  0.94287319  0.81838139    -0.29300
H1219       H  0.63870062  0.92866833  0.81215232     0.14900
H1220       H  0.72737009  0.93861894  0.83536510     0.15500
C1221       C  0.58856709  0.90570592  0.93252534    -0.14100
C1222       C  0.59389032  0.92278439  0.96895180    -0.29300
H1223       H  0.56362205  0.91497203  0.91319788     0.14900
H1224       H  0.61822424  0.91426699  0.98922643     0.15500
C1225       C  0.40287852  0.92191322  0.88090111    -0.14100
C1226       C  0.41968403  0.95826373  0.87624194    -0.29300
H1227       H  0.40797092  0.90433019  0.90834705     0.14900
H1228       H  0.41821589  0.97485113  0.84777213     0.15500
C1229       C  0.28934101  0.93511350  0.78022521    -0.14100
C1230       C  0.29257385  0.97616896  0.77614911    -0.29300
H1231       H  0.26217576  0.92070849  0.76865753     0.14900
H1232       H  0.32051173  0.99179452  0.78309949     0.15500
C1233       C  0.20695386  0.72308423  0.07176419    -0.14100
C1234       C  0.21103005  0.71893677  0.03062959    -0.29300
H1235       H  0.21812097  0.75033469  0.08583421     0.14900
H1236       H  0.20515786  0.69041467  0.01600744     0.15500
C1237       C  0.31428884  0.80502927  0.09286212    -0.14100
C1238       C  0.31187697  0.82147542  0.05489192    -0.29300
H1239       H  0.29403403  0.78040615  0.10112198     0.14900
H1240       H  0.33399269  0.84390999  0.04522283     0.15500
C1241       C  0.18216396  0.82687089  0.93732172    -0.14100
C1242       C  0.17794092  0.80818610  0.90084530    -0.29300
H1243       H  0.16193916  0.85117058  0.94573060     0.14900
H1244       H  0.19639131  0.78195392  0.89429160     0.15500
C1245       C  0.26947692  0.83883547  0.91572449    -0.14100
C1246       C  0.30578878  0.83397704  0.89689186    -0.29300
H1247       H  0.24843824  0.86039398  0.90304439     0.14900
H1248       H  0.32751054  0.81310497  0.90957562     0.15500
C1249       C  0.18897756  0.83053512  0.09685724    -0.14100
C1250       C  0.22512842  0.83568250  0.07760338    -0.29300
H1251       H  0.16645177  0.81069108  0.08376702     0.14900
H1252       H  0.24687541  0.85643747  0.09062589     0.15500
C1253       C  0.20091277  0.96540945  0.22863308    -0.14100
C1254       C  0.20988400  0.92751602  0.21548050    -0.29300
H1255       H  0.16944921  0.97455528  0.23186720     0.14900
H1256       H  0.24127326  0.91851224  0.21452132     0.15500
C1257       C  0.30012951  0.06740280  0.18473343    -0.14100
C1258       C  0.28439972  0.10522843  0.18477819    -0.29300
H1259       H  0.32113498  0.05837368  0.16092374     0.14900
H1260       H  0.26113370  0.11332104  0.20680960     0.15500
C1261       C  0.28898379  0.91442318  0.31809759    -0.14100
C1262       C  0.31062912  0.94894180  0.31303385    -0.29300
H1263       H  0.26036498  0.91084867  0.30222141     0.14900
H1264       H  0.33814525  0.95410424  0.33025343     0.15500
C1265       C  0.31966411  0.91236989  0.18892463    -0.14100
C1266       C  0.32289091  0.92988698  0.22589950    -0.29300
H1267       H  0.29990688  0.92570489  0.16642517     0.14900
H1268       H  0.34382758  0.91674147  0.24737839     0.15500
C1269       C  0.32008674  0.08742335  0.27023877    -0.14100
C1270       C  0.31490806  0.10576801  0.30614124    -0.29300
H1271       H  0.34232443  0.09952311  0.24888772     0.14900
H1272       H  0.29315610  0.09359550  0.32786240     0.15500
C1273       C  0.53977070  0.77998401  0.70335550    -0.14100
C1274       C  0.57791871  0.79295559  0.71261322    -0.29300
H1275       H  0.53026694  0.77872268  0.67184392     0.14900
H1276       H  0.58687792  0.79267481  0.74425681     0.15500
C1277       C  0.43761650  0.81800614  0.80475659    -0.14100
C1278       C  0.40018017  0.82288639  0.78769023    -0.29300
H1279       H  0.44789795  0.83929911  0.82743188     0.14900
H1280       H  0.39137184  0.80363642  0.76262946     0.15500
C1281       C  0.57315079  0.77332626  0.82908819    -0.14100
C1282       C  0.58450944  0.81202251  0.83326331    -0.29300
H1283       H  0.58934820  0.75073141  0.84636152     0.14900
H1284       H  0.56794149  0.83491709  0.81701765     0.15500
C1285       C  0.39688985  0.30395858  0.68009426    -0.14100
C1286       C  0.41702298  0.27016651  0.67056648    -0.29300
H1287       H  0.40878559  0.32328712  0.70363978     0.14900
H1288       H  0.40569654  0.25255151  0.64543655     0.15500
C1289       C  0.41079906  0.37871941  0.57080126    -0.14100
C1290       C  0.41631286  0.37604741  0.53056961    -0.29300
H1291       H  0.42816693  0.40074781  0.58794946     0.14900
H1292       H  0.40206349  0.35339350  0.51177537     0.15500
C1293       C  0.59521533  0.40864488  0.37622409    -0.14100
C1294       C  0.56226393  0.42973256  0.36613406    -0.29300
H1295       H  0.60988344  0.41286894  0.40541988     0.14900
H1296       H  0.54928746  0.42814587  0.33589520     0.15500
C1297       C  0.43349442  0.69243561  0.31341159    -0.14100
C1298       C  0.39678316  0.69010891  0.29482828    -0.29300
H1299       H  0.44131716  0.67083835  0.33687167     0.14900
H1300       H  0.39062858  0.70995881  0.26931850     0.15500
C1301       C  0.38404767  0.59858604  0.39256968    -0.14100
C1302       C  0.37665752  0.56404453  0.41207970    -0.29300
H1303       H  0.41238737  0.61489101  0.39680610     0.14900
H1304       H  0.34713478  0.54936688  0.41067253     0.15500
C1305       C  0.45078997  0.59784109  0.59018609    -0.14100
C1306       C  0.41481743  0.59481095  0.60871359    -0.29300
H1307       H  0.47018501  0.62402635  0.59405787     0.14900
H1308       H  0.39466041  0.56953026  0.60297385     0.15500
C1309       C  0.42564667  0.71554292  0.70028461    -0.14100
C1310       C  0.46728793  0.71606183  0.70025118    -0.29300
H1311       H  0.40998511  0.73221532  0.72394380     0.14900
H1312       H  0.48476468  0.70336681  0.67552241     0.15500
C1313       C  0.59592273  0.31724514  0.69349267    -0.14100
C1314       C  0.55861877  0.31449224  0.67596387    -0.29300
H1315       H  0.60309897  0.29746969  0.71878497     0.14900
H1316       H  0.54977913  0.33628212  0.65304847     0.15500
C1317       C  0.59805707  0.40528087  0.59433545    -0.14100
C1318       C  0.57443500  0.43737963  0.59807833    -0.29300
H1319       H  0.59811943  0.38727308  0.56683156     0.14900
H1320       H  0.57368432  0.45453433  0.62611838     0.15500
C1321       C  0.69223835  0.43871360  0.70880505    -0.14100
C1322       C  0.71124266  0.47090302  0.69133542    -0.35700
H1323       H  0.69353513  0.43454322  0.74154155     0.14900
H1324       H  0.71146220  0.47323036  0.65838517     0.15500
C1325       C  0.59460244  0.69992759  0.31956916    -0.14100
C1326       C  0.57421645  0.73429949  0.32705058    -0.29300
H1327       H  0.58216495  0.67877532  0.29793648     0.14900
H1328       H  0.58637993  0.75478795  0.34947994     0.15500
C1329       C  0.60975353  0.60314389  0.40307947    -0.14100
C1330       C  0.60945283  0.58852956  0.44086617    -0.29300
H1331       H  0.58676113  0.59409408  0.38136488     0.14900
H1332       H  0.63347485  0.59515152  0.46226039     0.15500
C1333       C  0.20571702  0.46373072  0.77282817    -0.14100
C1334       C  0.21374461  0.42464674  0.78232257    -0.29300
H1335       H  0.17456295  0.47429230  0.77247406     0.14900
H1336       H  0.24477344  0.41440307  0.78054899     0.15500
C1337       C  0.30000714  0.44589944  0.68305105    -0.14100
C1338       C  0.33202786  0.42407733  0.67045306    -0.29300
H1339       H  0.26998580  0.43924077  0.67139637     0.14900
H1340       H  0.36156854  0.43298520  0.68193778     0.15500
C1341       C  0.32483757  0.58538967  0.73209338    -0.14100
C1342       C  0.31676890  0.60609195  0.69822017    -0.29300
H1343       H  0.34971357  0.59506254  0.75132332     0.14900
H1344       H  0.29247118  0.59620481  0.67856646     0.15500
C1345       C  0.30059365  0.32079892  0.09893582    -0.14100
C1346       C  0.26640546  0.32840857  0.07817392    -0.29300
H1347       H  0.32185277  0.29877632  0.08742896     0.14900
H1348       H  0.24594186  0.35142761  0.08927075     0.15500
C1349       C  0.39014885  0.41399399  0.09985762    -0.14100
C1350       C  0.38065262  0.44665301  0.07828266    -0.29300
H1351       H  0.41958214  0.39958251  0.09679448     0.14900
H1352       H  0.35018728  0.45910465  0.07869029     0.15500
C1353       C  0.59069653  0.68275042  0.79007850    -0.14100
C1354       C  0.55516524  0.68715159  0.81128661    -0.29300
H1355       H  0.59515374  0.70056656  0.76262369     0.14900
H1356       H  0.54888506  0.66806572  0.83745559     0.15500
C1357       C  0.58950189  0.60184193  0.91295542    -0.14100
C1358       C  0.61051554  0.58300334  0.88401526    -0.29300
H1359       H  0.59010313  0.63423229  0.91627576     0.14900
H1360       H  0.60951318  0.55035784  0.88223536     0.15500
C1361       C  0.70554452  0.57856804  0.76588898    -0.14100
C1362       C  0.70170808  0.53782158  0.76193261    -0.29300
H1363       H  0.73340369  0.59238193  0.75464598     0.14900
H1364       H  0.67372552  0.52243013  0.77005324     0.15500
C1365       C  0.39346767  0.69740300  0.81182275    -0.14100
C1366       C  0.41327646  0.73246626  0.81723298    -0.29300
H1367       H  0.40673507  0.67472318  0.79232954     0.14900
H1368       H  0.40046948  0.75405378  0.83829594     0.15500
C1369       C  0.28881412  0.59782251  0.82187737    -0.14100
C1370       C  0.30848633  0.56204512  0.81726625    -0.29300
H1371       H  0.26160629  0.60324352  0.80422577     0.14900
H1372       H  0.33446439  0.55512851  0.83613077     0.15500
C1373       C  0.38879268  0.61799922  0.91393421    -0.14100
C1374       C  0.40522578  0.62697693  0.94988354    -0.29300
H1375       H  0.39648314  0.59035356  0.89816146     0.14900
H1376       H  0.40109047  0.65592635  0.96442063     0.15500
C1377       C  0.28224646  0.72327433  0.91665986    -0.14100
C1378       C  0.27277576  0.71744623  0.95676434    -0.29300
H1379       H  0.28023319  0.75349599  0.90454499     0.14900
H1380       H  0.27282824  0.68722384  0.96934181     0.15500
C1381       C  0.32086937  0.30330059  0.90317133    -0.14100
C1382       C  0.31460111  0.32061801  0.94015650    -0.29300
H1383       H  0.30315452  0.27687989  0.89520449     0.14900
H1384       H  0.33403800  0.34515235  0.94987101     0.15500
C1385       C  0.32700017  0.42593483  0.76898376    -0.14100
C1386       C  0.32424446  0.40831330  0.80606101    -0.29300
H1387       H  0.34792452  0.41304128  0.74733377     0.14900
H1388       H  0.30445546  0.42110650  0.82898066     0.15500
C1389       C  0.45619567  0.41612815  0.89561727    -0.14100
C1390       C  0.41816340  0.40154476  0.89774698    -0.29300
H1391       H  0.47832844  0.40501336  0.87391144     0.14900
H1392       H  0.39660548  0.41372927  0.91958253     0.15500
C1393       C  0.42792467  0.29531558  0.78751585    -0.14100
C1394       C  0.46941090  0.29293626  0.78684322    -0.29300
H1395       H  0.41137051  0.27971586  0.76387655     0.14900
H1396       H  0.48771373  0.30419520  0.81144891     0.15500
C1397       C  0.54568453  0.58633988  0.13026669    -0.14100
C1398       C  0.58232114  0.60216157  0.12239031    -0.29300
H1399       H  0.53009865  0.59006343  0.15920291     0.14900
H1400       H  0.59830060  0.59494890  0.09428665     0.15500
C1401       C  0.57095886  0.72134493  0.21331345    -0.14100
C1402       C  0.53037352  0.72596835  0.20702169    -0.29300
H1403       H  0.58328821  0.73118330  0.24197133     0.14900
H1404       H  0.51700447  0.71839832  0.17798560     0.15500
C1405       C  0.60317174  0.40577310  0.08301228    -0.14100
C1406       C  0.60609580  0.42156545  0.04557073    -0.29300
H1407       H  0.57887469  0.41440259  0.10370464     0.14900
H1408       H  0.63126991  0.41476410  0.02528919     0.15500
C1409       C  0.71430913  0.30265193  0.02862606    -0.14100
C1410       C  0.70973408  0.29874881  0.06986981    -0.29300
H1411       H  0.70557465  0.32976101  0.01273812     0.14900
H1412       H  0.72290875  0.27291515  0.08475774     0.15500
C1413       C  0.07488183  0.61004203  0.39731387    -0.14100
C1414       C  0.04092289  0.59066889  0.38651522    -0.29300
H1415       H  0.08906457  0.60436284  0.42651210     0.14900
H1416       H  0.02911486  0.59286669  0.35580913     0.15500
C1417       C  0.06918781  0.71688101  0.28957623    -0.14100
C1418       C  0.02802546  0.72224679  0.29294921    -0.29300
H1419       H  0.08439354  0.72872972  0.26268147     0.14900
H1420       H  0.01192251  0.71530550  0.32092010     0.15500
C1421       C  0.82613823  0.42294500  0.72147682    -0.14100
C1422       C  0.82293431  0.40348201  0.68575887    -0.29300
H1423       H  0.84509542  0.41004021  0.74492069     0.14900
H1424       H  0.80383070  0.41621907  0.66238326     0.15500
C1425       C  0.94417813  0.37393383  0.57744933    -0.14100
C1426       C  0.90424988  0.36880915  0.58366450    -0.29300
H1427       H  0.96690010  0.35686257  0.59358394     0.14900
H1428       H  0.88237787  0.38664912  0.56690882     0.15500
C1429       C  0.91840600  0.28268437  0.70612082    -0.14100
C1430       C  0.95418580  0.30029482  0.71747376    -0.29300
H1431       H  0.91180891  0.25188734  0.71499651     0.14900
H1432       H  0.95932406  0.33166225  0.70961112     0.15500
C1433       C  0.85426168  0.42727753  0.41582622    -0.14100
C1434       C  0.85301100  0.46670696  0.42397195    -0.29300
H1435       H  0.87317517  0.40786458  0.43447231     0.14900
H1436       H  0.83457710  0.48779403  0.40713924     0.15500
C1437       C  0.81892135  0.56203262  0.67497946    -0.14100
C1438       C  0.79859188  0.59694844  0.66876030    -0.29300
H1439       H  0.84589199  0.55523855  0.65728444     0.14900
H1440       H  0.77008399  0.60169782  0.68485633     0.15500
C1441       C  0.90252489  0.62455667  0.57501856    -0.14100
C1442       C  0.91405476  0.58876600  0.58833844    -0.29300
H1443       H  0.91286001  0.63572316  0.54554034     0.14900
H1444       H  0.90129972  0.57568726  0.61585638     0.15500
C1445       C  0.06591779  0.39108608  0.41807773    -0.14100
C1446       C  0.09257502  0.40731433  0.39230043    -0.29300
H1447       H  0.07012770  0.36099569  0.43038367     0.14900
H1448       H  0.08924525  0.43774814  0.38058637     0.15500
C1449       C  0.09520213  0.58041112  0.60034985    -0.14100
C1450       C  0.09891108  0.54237296  0.58725588    -0.29300
H1451       H  0.07153090  0.59976213  0.58848102     0.14900
H1452       H  0.12267018  0.52257518  0.59785627     0.15500
C1453       C  0.20621334  0.57707402  0.70536183    -0.14100
C1454       C  0.20486437  0.53629714  0.71097764    -0.29300
H1455       H  0.23161066  0.59349094  0.71811837     0.14900
H1456       H  0.17817588  0.51876996  0.70378948     0.15500
C1457       C  0.92061742  0.71712682  0.78600033    -0.14100
C1458       C  0.96207594  0.72033818  0.79022670    -0.29300
H1459       H  0.90709939  0.72968269  0.75889542     0.14900
H1460       H  0.97681435  0.71277072  0.81843459     0.15500
C1461       C  0.07551459  0.79639403  0.78265782    -0.14100
C1462       C  0.03696664  0.78308127  0.79050921    -0.29300
H1463       H  0.08646673  0.79542866  0.75160270     0.14900
H1464       H  0.02553813  0.78195421  0.82153710     0.15500
C1465       C  0.09185806  0.68249657  0.69528985    -0.14100
C1466       C  0.05504918  0.68941452  0.67819788    -0.29300
H1467       H  0.10053217  0.69987035  0.72178229     0.14900
H1468       H  0.04436392  0.67025247  0.65384119     0.15500
C1469       C  0.91740863  0.73476823  0.67225964    -0.14100
C1470       C  0.89737233  0.70000097  0.67894391    -0.29300
H1471       H  0.90544263  0.75568232  0.64998292     0.14900
H1472       H  0.90970603  0.67818486  0.69997847     0.15500
C1473       C  0.70893217  0.20118520  0.52210478    -0.14100
C1474       C  0.71045724  0.20303944  0.56386071    -0.29300
H1475       H  0.69345713  0.17707577  0.50669763     0.14900
H1476       H  0.72818520  0.22689195  0.57736713     0.15500
C1477       C  0.68965579  0.32037777  0.43033270    -0.14100
C1478       C  0.67301597  0.29877373  0.39982910    -0.29300
H1479       H  0.68756575  0.35290087  0.42999012     0.14900
H1480       H  0.67624649  0.26627039  0.40080709     0.15500
C1481       C  0.79662973  0.30686499  0.56449601    -0.14100
C1482       C  0.79926653  0.29022049  0.60236544    -0.29300
H1483       H  0.81944879  0.32861326  0.55490231     0.14900
H1484       H  0.77960608  0.26529157  0.61090690     0.15500
C1485       C  0.69997115  0.30925408  0.57193194    -0.14100
C1486       C  0.71234315  0.33747295  0.59843884    -0.29300
H1487       H  0.66951382  0.29704658  0.57471316     0.14900
H1488       H  0.74195786  0.35119737  0.59429909     0.15500
C1489       C  0.77495740  0.32910491  0.38651206    -0.14100
C1490       C  0.78209434  0.32843197  0.42698924    -0.29300
H1491       H  0.74966963  0.31254695  0.37386740     0.14900
H1492       H  0.80761357  0.34507467  0.43910727     0.15500
C1493       C  0.20193288  0.91307355  0.67777614    -0.14100
C1494       C  0.18582922  0.95086327  0.67886389    -0.29300
H1495       H  0.22633290  0.90549763  0.69844938     0.14900
H1496       H  0.16378585  0.95983753  0.65622634     0.15500
C1497       C  0.07916339  0.77648938  0.66781917    -0.14100
C1498       C  0.09515980  0.81411042  0.66915669    -0.29300
H1499       H  0.09407462  0.75455535  0.64862127     0.14900
H1500       H  0.08037121  0.83646906  0.68786403     0.15500
C1501       C  0.10924438  0.91374345  0.58219715    -0.14100
C1502       C  0.11666004  0.93532916  0.54867725    -0.29300
H1503       H  0.08067629  0.91687174  0.59872638     0.14900
H1504       H  0.14617179  0.93586892  0.53368231     0.15500
C1505       C  0.16926317  0.10891589  0.68708088    -0.14100
C1506       C  0.16764556  0.08931855  0.72328450    -0.29300
H1507       H  0.18893436  0.09735859  0.66330766     0.14900
H1508       H  0.14683578  0.10089184  0.74604675     0.15500
C1509       C  0.06757628  0.12264295  0.60276171    -0.14100
C1510       C  0.02756285  0.12336244  0.59541156    -0.29300
H1511       H  0.08662095  0.09890528  0.59049170     0.14900
H1512       H  0.00834145  0.14840431  0.60392882     0.15500
C1513       C  0.06718626  0.22404585  0.71383576    -0.14100
C1514       C  0.02693600  0.23350814  0.70920763    -0.29300
H1515       H  0.08137053  0.23017887  0.74261949     0.14900
H1516       H  0.01281847  0.23172788  0.67958390     0.15500
C1517       C  0.08544669  0.09735496  0.38413856    -0.14100
C1518       C  0.07777899  0.11049756  0.42151534    -0.29300
H1519       H  0.07117004  0.07018975  0.37249956     0.14900
H1520       H  0.09527908  0.13475739  0.43498050     0.15500
C1521       C  0.20158918  0.04204466  0.28864877    -0.14100
C1522       C  0.20553369  0.08312521  0.29207364    -0.29300
H1523       H  0.17331774  0.02701956  0.29596366     0.14900
H1524       H  0.23269579  0.09718267  0.27974128     0.15500
C1525       C  0.90296213  0.82121407  0.70679223    -0.14100
C1526       C  0.93998393  0.81943987  0.68812959    -0.29300
H1527       H  0.89617799  0.80132821  0.73224646     0.14900
H1528       H  0.94807226  0.84110621  0.66462513     0.15500
C1529       C  0.90240179  0.91445498  0.61306756    -0.14100
C1530       C  0.91561559  0.95220121  0.61614311    -0.29300
H1531       H  0.91221509  0.89518555  0.58828486     0.14900
H1532       H  0.90685239  0.97160193  0.64112392     0.15500
C1533       C  0.78847587  0.92684544  0.71396257    -0.14100
C1534       C  0.79469025  0.96711770  0.71991065    -0.29300
H1535       H  0.76002276  0.91360720  0.72384163     0.14900
H1536       H  0.82446107  0.98048847  0.71550904     0.15500
C1537       C  0.86687333  0.07464566  0.43798321    -0.14100
C1538       C  0.87035409  0.08932578  0.40006303    -0.29300
H1539       H  0.84052888  0.08053859  0.45692945     0.14900
H1540       H  0.89659876  0.08205994  0.38129827     0.15500
C1541       C  0.77085527  0.20049041  0.41844666    -0.14100
C1542       C  0.78594490  0.21166702  0.45529992    -0.29300
H1543       H  0.73942026  0.20688883  0.41116729     0.14900
H1544       H  0.81792454  0.20650454  0.46112950     0.15500
C1545       C  0.93046658  0.92109511  0.37461055    -0.14100
C1546       C  0.96489230  0.91136342  0.39353433    -0.29300
H1547       H  0.91600467  0.94994955  0.38006697     0.14900
H1548       H  0.97653961  0.88084315  0.39305956     0.15500
C1549       C  0.91940992  0.79831445  0.28984400    -0.14100
C1550       C  0.95946329  0.78905953  0.29434649    -0.29300
H1551       H  0.90551771  0.79117282  0.26091808     0.14900
H1552       H  0.97457275  0.79432140  0.32306575     0.15500
C1553       C  0.71232896  0.71496733  0.46277319    -0.14100
C1554       C  0.71038665  0.71723529  0.42119596    -0.29300
H1555       H  0.70188664  0.68873120  0.47932044     0.14900
H1556       H  0.72516108  0.74258075  0.40633049     0.15500
C1557       C  0.77810534  0.71256778  0.53316735    -0.14100
C1558       C  0.78706811  0.71891320  0.57299162    -0.29300
H1559       H  0.78146360  0.68292439  0.51991932     0.14900
H1560       H  0.78160573  0.74832367  0.58564446     0.15500
C1561       C  0.68564439  0.82208374  0.55582287    -0.14100
C1562       C  0.68061446  0.80296386  0.59226497    -0.29300
H1563       H  0.66645601  0.84737483  0.54802324     0.14900
H1564       H  0.69821244  0.77606533  0.59833429     0.15500
C1565       C  0.81808301  0.80843866  0.43621017    -0.14100
C1566       C  0.82801119  0.84154389  0.41440561    -0.29300
H1567       H  0.83305544  0.78015298  0.42978110     0.14900
H1568       H  0.81398071  0.86953534  0.42380784     0.15500
C1569       C  0.77203531  0.83247692  0.57775081    -0.14100
C1570       C  0.80676164  0.82563024  0.59812953    -0.29300
H1571       H  0.75139768  0.85492777  0.58967230     0.14900
H1572       H  0.82846641  0.80430557  0.58603627     0.15500
C1573       C  0.73156932  0.83084303  0.41468275    -0.14100
C1574       C  0.69668156  0.82228936  0.39513952    -0.29300
H1575       H  0.75105226  0.85384889  0.40181783     0.14900
H1576       H  0.67596096  0.80025134  0.40804129     0.15500
C1577       C  0.70014350  0.96579019  0.27374165    -0.14100
C1578       C  0.70722992  0.92584618  0.28028410    -0.29300
H1579       H  0.67098401  0.97890303  0.28119760     0.14900
H1580       H  0.73519876  0.91311304  0.26857255     0.15500
C1581       C  0.69415263  0.02887523  0.19967042    -0.14100
C1582       C  0.68396721  0.06536311  0.21530120    -0.29300
H1583       H  0.68584353  0.02115729  0.16891350     0.14900
H1584       H  0.69755939  0.07434505  0.24389303     0.15500
C1585       C  0.80346331  0.06684099  0.29209483    -0.14100
C1586       C  0.78595653  0.10359092  0.29670470    -0.29300
H1587       H  0.82631659  0.05723348  0.31362702     0.14900
H1588       H  0.76032919  0.11170215  0.27780640     0.15500
C1589       C  0.80607534  0.94238581  0.17086494    -0.14100
C1590       C  0.78703000  0.90634767  0.16583463    -0.29300
H1591       H  0.83276954  0.94981459  0.15274862     0.14900
H1592       H  0.75890626  0.90035673  0.18229871     0.15500
C1593       C  0.81870903  0.91407386  0.29735827    -0.14100
C1594       C  0.82144277  0.92822855  0.25905562    -0.29300
H1595       H  0.79829841  0.92805820  0.31898385     0.14900
H1596       H  0.84275770  0.91415202  0.23822574     0.15500
C1597       C  0.80458624  0.08305535  0.19663574    -0.14100
C1598       C  0.83091503  0.11088989  0.21100260    -0.29300
H1599       H  0.79323550  0.08671271  0.16606495     0.14900
H1600       H  0.84468916  0.10621195  0.24035598     0.15500
C1601       C  0.02482071  0.28895113  0.20292041    -0.14100
C1602       C  0.06573590  0.29601231  0.20543736    -0.29300
H1603       H  0.00824353  0.29446949  0.17519935     0.14900
H1604       H  0.08129846  0.28552915  0.23239120     0.15500
C1605       C  0.92455308  0.23054838  0.19631194    -0.14100
C1606       C  0.96020269  0.21527163  0.21011262    -0.29300
H1607       H  0.91716563  0.26180365  0.20214764     0.14900
H1608       H  0.96591269  0.18339270  0.20616340     0.15500
C1609       C  0.05469012  0.19509194  0.31348535    -0.14100
C1610       C  0.09225749  0.19268048  0.29562426    -0.29300
H1611       H  0.04593560  0.17349872  0.33682183     0.14900
H1612       H  0.09968386  0.21206367  0.26994425     0.15500
C1613       C  0.93041214  0.32184638  0.29871158    -0.14100
C1614       C  0.90598497  0.33240179  0.33013399    -0.29300
H1615       H  0.92717629  0.33719870  0.26975375     0.14900
H1616       H  0.91192377  0.31802076  0.35917830     0.15500
C1617       C  0.91046383  0.23414961  0.32372518    -0.14100
C1618       C  0.89630924  0.19568925  0.32292330    -0.29300
H1619       H  0.89169226  0.25603880  0.33882799     0.14900
H1620       H  0.91390042  0.17301274  0.30739066     0.15500
C1621       C  0.07367865  0.28129338  0.32421222    -0.14100
C1622       C  0.09506397  0.31430453  0.31368431    -0.29300
H1623       H  0.08458089  0.26290051  0.34914045     0.14900
H1624       H  0.08377179  0.33331636  0.28948435     0.15500
C1625       C  0.78564051  0.53831409  0.19545163    -0.14100
C1626       C  0.79589602  0.57527222  0.21007137    -0.29300
H1627       H  0.79151941  0.53164758  0.16365419     0.14900
H1628       H  0.78870629  0.58290960  0.24137130     0.15500
C1629       C  0.79934718  0.47418381  0.27219471    -0.14100
C1630       C  0.79518366  0.43324068  0.27511417    -0.29300
H1631       H  0.82517848  0.48910078  0.28583112     0.14900
H1632       H  0.76913077  0.41985518  0.26027821     0.15500
C1633       C  0.67770494  0.43734049  0.19787516    -0.14100
C1634       C  0.70049532  0.41171589  0.17528806    -0.29300
H1635       H  0.64518808  0.43344317  0.20070697     0.14900
H1636       H  0.73326868  0.41580984  0.17511705     0.15500
C1637       C  0.68766817  0.57238109  0.29977763    -0.14100
C1638       C  0.70832297  0.60620925  0.31090619    -0.29300
H1639       H  0.65749654  0.56671676  0.31190304     0.14900
H1640       H  0.73935636  0.61029210  0.30017121     0.15500
C1641       C  0.67556756  0.57690851  0.20595317    -0.14100
C1642       C  0.68053499  0.61672086  0.21247681    -0.29300
H1643       H  0.65581473  0.56741348  0.18146584     0.14900
H1644       H  0.70092817  0.62718397  0.23576651     0.15500
C1645       C  0.68395031  0.39337025  0.28075846    -0.14100
C1646       C  0.68413594  0.43267865  0.29161775    -0.29300
H1647       H  0.69770296  0.38451589  0.25222748     0.14900
H1648       H  0.67150975  0.44098832  0.32096340     0.15500
C1649       C  0.26743536  0.31439540  0.53945426    -0.14100
C1650       C  0.27811762  0.30599405  0.57880781    -0.29300
H1651       H  0.27426874  0.34367106  0.52635165     0.14900
H1652       H  0.26967302  0.27681078  0.59095295     0.15500
C1653       C  0.20157312  0.31310647  0.46579970    -0.14100
C1654       C  0.20355148  0.30949411  0.42437517    -0.29300
H1655       H  0.18716296  0.33843808  0.48033017     0.14900
H1656       H  0.22141129  0.28528649  0.41169654     0.15500
C1657       C  0.30647833  0.22156974  0.43803684    -0.14100
C1658       C  0.30966631  0.19202769  0.41028128    -0.29300
H1659       H  0.33002042  0.24443302  0.43969560     0.14900
H1660       H  0.28827885  0.16722795  0.41330879     0.15500
C1661       C  0.17364948  0.20126968  0.55607332    -0.14100
C1662       C  0.16916806  0.21746961  0.59380184    -0.29300
H1663       H  0.15368904  0.17715942  0.54634186     0.14900
H1664       H  0.18736583  0.24359949  0.60167586     0.15500
C1665       C  0.26071616  0.19141029  0.57604678    -0.14100
C1666       C  0.29649731  0.19709902  0.59442996    -0.29300
H1667       H  0.24120424  0.16714869  0.58691592     0.14900
H1668       H  0.31736175  0.21992598  0.58325096     0.15500
C1669       C  0.21797462  0.20319893  0.41456051    -0.14100
C1670       C  0.18353885  0.18217206  0.40888845    -0.29300
H1671       H  0.23759169  0.20798885  0.38837571     0.14900
H1672       H  0.16229199  0.17872032  0.43406976     0.15500
C1673       C  0.45927722  0.22488836  0.29519425    -0.14100
C1674       C  0.41787860  0.22074385  0.29349476    -0.29300
H1675       H  0.47566509  0.21762604  0.32265423     0.14900
H1676       H  0.40269181  0.23215793  0.26663602     0.15500
C1677       C  0.53082945  0.28944604  0.29046779    -0.14100
C1678       C  0.57158081  0.29200465  0.28334781    -0.29300
H1679       H  0.51787214  0.29860834  0.31936104     0.14900
H1680       H  0.58353023  0.27994756  0.25523106     0.15500
C1681       C  0.55193524  0.18940702  0.18751199    -0.14100
C1682       C  0.59126124  0.18877127  0.20001168    -0.29300
H1683       H  0.53976716  0.16398257  0.17100811     0.14900
H1684       H  0.60230895  0.21246465  0.21971473     0.15500
C1685       C  0.40013827  0.32595318  0.20341961    -0.14100
C1686       C  0.43604407  0.31991312  0.18357838    -0.29300
H1687       H  0.39391422  0.30962944  0.23147196     0.14900
H1688       H  0.44381200  0.33788519  0.15700097     0.15500
C1689       C  0.59384359  0.31108845  0.17473453    -0.14100
C1690       C  0.57420142  0.27572838  0.16978293    -0.29300
H1691       H  0.58182822  0.33250167  0.19640528     0.14900
H1692       H  0.58602708  0.25474202  0.14751880     0.15500
C1693       C  0.39627190  0.19714671  0.17576673    -0.14100
C1694       C  0.41390651  0.23373960  0.17233651    -0.29300
H1695       H  0.40911192  0.17509550  0.19624881     0.14900
H1696       H  0.40082844  0.25540395  0.15160692     0.15500
C1697       C  0.28829050  0.58012132  0.27529810    -0.14100
C1698       C  0.29021015  0.53919674  0.27553932    -0.29300
H1699       H  0.26448206  0.59421625  0.25767836     0.14900
H1700       H  0.31475709  0.52304858  0.28971302     0.15500
C1701       C  0.28868962  0.46943313  0.21051649    -0.14100
C1702       C  0.28188034  0.42926577  0.20546281    -0.29300
H1703       H  0.31914557  0.48164426  0.20727035     0.14900
H1704       H  0.25161334  0.41770492  0.21153576     0.15500
C1705       C  0.18435208  0.56893619  0.17774267    -0.14100
C1706       C  0.20202510  0.60603551  0.17580334    -0.29300
H1707       H  0.16031723  0.56109616  0.15676103     0.14900
H1708       H  0.22798084  0.61258869  0.19486101     0.15500
C1709       C  0.20136963  0.41415198  0.30914352    -0.14100
C1710       C  0.18193458  0.44978849  0.30520341    -0.29300
H1711       H  0.22821765  0.40788208  0.29087655     0.14900
H1712       H  0.15675115  0.45724483  0.32525783     0.15500
C1713       C  0.17041106  0.58735243  0.26551454    -0.14100
C1714       C  0.17165722  0.60214784  0.30373791    -0.29300
H1715       H  0.15109126  0.60220200  0.24365125     0.14900
H1716       H  0.19013661  0.58726084  0.32628774     0.15500
C1717       C  0.16567823  0.42990419  0.21878577    -0.14100
C1718       C  0.16702091  0.41224670  0.18177261    -0.29300
H1719       H  0.14572980  0.41679113  0.24160861     0.14900
H1720       H  0.18633422  0.42527303  0.15830588     0.15500
C1721       C  0.76810714  0.79244817  0.02967394    -0.14100
C1722       C  0.78603304  0.78516802  0.06617659    -0.29300
H1723       H  0.76367682  0.82323710  0.01961701     0.14900
H1724       H  0.78877715  0.75419708  0.07590639     0.15500
C1725       C  0.69044582  0.78923453  0.96933456    -0.14100
C1726       C  0.70380893  0.80852343  0.93493949    -0.29300
H1727       H  0.65829023  0.79046891  0.97673504     0.14900
H1728       H  0.73529636  0.80565205  0.92537454     0.15500
C1729       C  0.67826864  0.67908492  0.06033095    -0.14100
C1730       C  0.66913323  0.70274615  0.09258180    -0.29300
H1731       H  0.66675352  0.64850113  0.05901715     0.14900
H1732       H  0.68008267  0.73362864  0.09234635     0.15500
C1733       C  0.79363189  0.68581286  0.92902894    -0.14100
C1734       C  0.80500473  0.70797771  0.89571292    -0.29300
H1735       H  0.80801956  0.65722825  0.93512403     0.14900
H1736       H  0.79261699  0.73796999  0.89194842     0.15500
C1737       C  0.69858049  0.67574081  0.91922540    -0.14100
C1738       C  0.70753215  0.67938776  0.87921925    -0.29300
H1739       H  0.67187782  0.65826606  0.92774696     0.14900
H1740       H  0.73316308  0.69733186  0.86937424     0.15500
C1741       C  0.76657559  0.66973009  0.07181195    -0.14100
C1742       C  0.80502615  0.67176747  0.08607033    -0.29300
H1743       H  0.74537222  0.65077276  0.08841965     0.14900
H1744       H  0.82711816  0.69014675  0.06981697     0.15500
C1745       C  0.26680501  0.80468848  0.45769783    -0.14100
C1746       C  0.27701382  0.79591673  0.41844069    -0.29300
H1747       H  0.26927784  0.83528469  0.46876119     0.14900
H1748       H  0.27314159  0.76548938  0.40794887     0.15500
C1749       C  0.19658436  0.79159863  0.52971362    -0.14100
C1750       C  0.21293783  0.80700253  0.56433094    -0.29300
H1751       H  0.16404719  0.79406391  0.52525508     0.14900
H1752       H  0.24516867  0.80326064  0.56997116     0.15500
C1753       C  0.19507472  0.68231711  0.43329537    -0.14100
C1754       C  0.17532441  0.70515639  0.40515401    -0.29300
H1755       H  0.19165517  0.64995192  0.43372340     0.14900
H1756       H  0.17994849  0.73751330  0.40604381     0.15500
C1757       C  0.31786539  0.68280791  0.58634705    -0.14100
C1758       C  0.31142490  0.71474290  0.56217009    -0.29300
H1759       H  0.29954110  0.65628219  0.58025243     0.14900
H1760       H  0.33131891  0.74075718  0.56412290     0.15500
C1761       C  0.18560053  0.67231166  0.58533006    -0.14100
C1762       C  0.22274816  0.68853196  0.57917459    -0.29300
H1763       H  0.16356701  0.67267437  0.56106142     0.14900
H1764       H  0.24290681  0.68920614  0.60496834     0.15500
C1765       C  0.29019067  0.68745854  0.42373829    -0.14100
C1766       C  0.27863086  0.68368438  0.38464792    -0.29300
H1767       H  0.32031851  0.67746623  0.43219235     0.14900
H1768       H  0.24919831  0.69443835  0.37533044     0.15500
loop_ 
_geom_bond_atom_site_label_1 
_geom_bond_atom_site_label_2 
_geom_bond_distance 
_geom_bond_site_symmetry_2 
_ccdc_geom_bond_type 
C1            H2   1.112       .  S
C1            C7   1.546       .  S
C1            C6   1.548       .  S
C1            C5   1.542       .  S
C3            H4   1.108       .  S
C3            C9   1.557       .  S
C3            C8   1.558       .  S
C3           C10   1.538       .  S
C5            C8   1.378       .  D
C5         C1765   1.505       .  S
C6            C9   1.386       .  D
C6         C1758   1.513       .  S
C7           C10   1.376       .  D
C7         C1745   1.500       .  S
C8         C1753   1.506       .  S
C9         C1762   1.511       .  S
C10        C1749   1.497       .  S
C11          H12   1.109       .  S
C11          C17   1.558       .  S
C11          C16   1.575   1_554  S
C11          C15   1.559       .  S
C13          H14   1.112       .  S
C13          C19   1.535       .  S
C13          C18   1.535       .  S
C13          C20   1.550   1_556  S
C15          C18   1.378   1_554  D
C15        C1721   1.509       .  S
C16          C19   1.384       .  D
C16        C1733   1.503       .  S
C17          C20   1.373       .  D
C17        C1741   1.522       .  S
C18        C1725   1.493       .  S
C19        C1737   1.508       .  S
C20        C1729   1.503       .  S
C21          H22   1.109       .  S
C21          C27   1.546       .  S
C21          C26   1.570       .  S
C21          C25   1.554       .  S
C23          H24   1.108       .  S
C23          C29   1.537       .  S
C23          C28   1.538       .  S
C23          C30   1.551       .  S
C25          C28   1.370       .  D
C25        C1701   1.498       .  S
C26          C29   1.376       .  D
C26        C1705   1.502       .  S
C27          C30   1.374       .  D
C27        C1717   1.517       .  S
C28        C1698   1.488       .  S
C29        C1713   1.511       .  S
C30        C1710   1.485       .  S
C31          H32   1.108       .  S
C31          C37   1.543       .  S
C31          C36   1.568       .  S
C31          C35   1.548       .  S
C33          H34   1.109       .  S
C33          C39   1.546       .  S
C33          C38   1.547       .  S
C33          C40   1.557       .  S
C35          C38   1.373       .  D
C35        C1673   1.501       .  S
C36          C39   1.376       .  D
C36        C1681   1.508       .  S
C37          C40   1.374       .  D
C37        C1694   1.505       .  S
C38        C1677   1.494       .  S
C39        C1690   1.513       .  S
C40        C1686   1.501       .  S
C41          H42   1.108       .  S
C41          C47   1.548       .  S
C41          C46   1.563       .  S
C41          C45   1.541       .  S
C43          H44   1.110       .  S
C43          C49   1.547       .  S
C43          C48   1.553       .  S
C43          C50   1.553       .  S
C45          C48   1.379       .  D
C45        C1649   1.508       .  S
C46          C49   1.383       .  D
C46        C1657   1.517       .  S
C47          C50   1.369       .  D
C47        C1665   1.498       .  S
C48        C1653   1.497       .  S
C49        C1669   1.510       .  S
C50        C1661   1.506       .  S
C51          H52   1.112       .  S
C51          C57   1.533       .  S
C51          C56   1.549       .  S
C51          C55   1.540       .  S
C53          H54   1.111       .  S
C53          C59   1.547       .  S
C53          C58   1.567       .  S
C53          C60   1.552       .  S
C55          C58   1.380       .  D
C55        C1641   1.502       .  S
C56          C59   1.376       .  D
C56        C1633   1.494       .  S
C57          C60   1.375       .  D
C57        C1625   1.488       .  S
C58        C1637   1.506       .  S
C59        C1646   1.510       .  S
C60        C1629   1.506       .  S
C61          H62   1.110       .  S
C61          C67   1.543       .  S
C61          C66   1.568   1_455  S
C61          C65   1.551       .  S
C63          H64   1.107       .  S
C63          C69   1.558       .  S
C63          C68   1.550   1_655  S
C63          C70   1.539       .  S
C65          C68   1.365       .  D
C65        C1621   1.505       .  S
C66          C69   1.393       .  D
C66        C1613   1.523       .  S
C67          C70   1.378   1_455  D
C67        C1601   1.498       .  S
C68        C1609   1.505       .  S
C69        C1617   1.525       .  S
C70        C1606   1.488       .  S
C71          H72   1.112       .  S
C71          C77   1.546       .  S
C71          C76   1.550   1_545  S
C71          C75   1.539       .  S
C73          H74   1.108       .  S
C73          C79   1.546       .  S
C73          C78   1.542       .  S
C73          C80   1.564   1_565  S
C75          C78   1.371   1_545  D
C75        C1581   1.482       .  S
C76          C79   1.371       .  D
C76        C1589   1.501       .  S
C77          C80   1.383       .  D
C77        C1597   1.513       .  S
C78        C1577   1.498       .  S
C79        C1594   1.500       .  S
C80        C1585   1.503       .  S
C81          H82   1.109       .  S
C81          C87   1.548       .  S
C81          C86   1.563       .  S
C81          C85   1.548       .  S
C83          H84   1.108       .  S
C83          C89   1.546       .  S
C83          C88   1.561       .  S
C83          C90   1.544       .  S
C85          C88   1.371       .  D
C85        C1569   1.510       .  S
C86          C89   1.383       .  D
C86        C1565   1.514       .  S
C87          C90   1.374       .  D
C87        C1557   1.494       .  S
C88        C1561   1.507       .  S
C89        C1573   1.508       .  S
C90        C1553   1.501       .  S
C91          C92   1.524       .  S
C91          C97   1.550       .  S
C91          C95   1.566       .  S
C91        C1549   1.535       .  S
C92          C93   1.350       .  D
C92          H99   1.086       .  S
C93          C94   1.524       .  S
C93        C1545   1.453       .  S
C94         H100   1.112       .  S
C94          C98   1.528       .  S
C94          C96   1.537       .  S
C95          C96   1.387       .  D
C95         H101   1.085       .  S
C96        C1566   1.510       .  S
C97          C98   1.371       .  D
C97         H102   1.086       .  S
C98        C1593   1.487       .  S
C103        C104   1.556       .  S
C103        C109   1.550       .  S
C103        C107   1.523       .  S
C103       C1541   1.541       .  S
C104        C105   1.381       .  D
C104        H111   1.085       .  S
C105        C106   1.540       .  S
C105       C1586   1.505       .  S
C106        H112   1.111       .  S
C106        C110   1.550       .  S
C106        C108   1.526       .  S
C107        C108   1.359       .  D
C107        H113   1.083       .  S
C108       C1538   1.464       .  S
C109        C110   1.377       .  D
C109        H114   1.084       .  S
C110       C1618   1.515       .  S
C115        C116   1.554       .  S
C115        C121   1.550       .  S
C115        C119   1.523       .  S
C115       C1533   1.536       .  S
C116        C117   1.379       .  D
C116        H123   1.085       .  S
C117        C118   1.531       .  S
C117       C1525   1.494       .  S
C118        H124   1.112       .  S
C118        C122   1.537       .  S
C118        C120   1.512       .  S
C119        C120   1.358       .  D
C119        H125   1.081       .  S
C120       C1529   1.446       .  S
C121        C122   1.377       .  D
C121        H126   1.084       .  S
C122       C1570   1.502       .  S
C127        C128   1.529       .  S
C127        C133   1.557       .  S
C127        C131   1.564       .  S
C127       C1522   1.553       .  S
C128        C129   1.349       .  D
C128        H135   1.082       .  S
C129        C130   1.512       .  S
C129       C1517   1.432       .  S
C130        H136   1.111       .  S
C130        C134   1.530       .  S
C130        C132   1.528       .  S
C131        C132   1.387       .  D
C131        H137   1.085       .  S
C132       C1610   1.503       .  S
C133        C134   1.376       .  D
C133        H138   1.086       .  S
C134       C1670   1.499       .  S
C139        C140   1.551       .  S
C139        C145   1.558       .  S
C139        C143   1.517       .  S
C139       C1513   1.540       .  S
C140        C141   1.379       .  D
C140        H147   1.086       .  S
C141        C142   1.539       .  S
C141       C1662   1.501       .  S
C142        H148   1.111       .  S
C142        C146   1.545       .  S
C142        C144   1.527       .  S
C143        C144   1.354       .  D
C143        H149   1.082       .  S
C144       C1509   1.451       .  S
C145        C146   1.381       .  D
C145        H150   1.084       .  S
C146       C1505   1.519       .  S
C151        C152   1.525       .  S
C151        C157   1.551       .  S
C151        C155   1.556       .  S
C151       C1750   1.536       .  S
C152        C153   1.356       .  D
C152        H159   1.086       .  S
C153        C154   1.518       .  S
C153       C1501   1.446       .  S
C154        H160   1.112       .  S
C154        C158   1.546       .  S
C154        C156   1.536       .  S
C155        C156   1.380       .  D
C155        H161   1.086       .  S
C156       C1493   1.502       .  S
C157        C158   1.378       .  D
C157        H162   1.085       .  S
C158       C1498   1.511       .  S
O163        C179   1.271       .  A
O163       Zn169   1.932   1_455  S
C164        O180   1.270       .  A
C164        O177   1.269       .  A
C164       C1546   1.436       .  S
O165        C178   1.269       .  A
O165       Cd172   2.033       .  S
O166        C184   1.271       .  A
O166       Cd175   2.003       .  S
O167        C181   1.265       .  A
O167       Cd171   2.026   1_565  S
O168        C179   1.266       .  A
O168       Cd171   2.014       .  S
Zn169       O180   1.964   1_545  S
Zn169       O182   1.953       .  S
Zn169       O174   1.829       .  S
O170        C181   1.269       .  A
O170       Cd175   2.013   1_455  S
Cd171       O173   1.993       .  S
Cd171       O174   1.925   1_455  S
Cd172       O176   2.041       .  S
Cd172       O185   2.006       .  S
Cd172       O174   1.956       .  S
O173        C183   1.265       .  A
O174       Cd175   1.910   1_545  S
Cd175       O177   2.020       .  S
O176        C183   1.268   1_655  A
C178        O182   1.268       .  A
C178       C1537   1.450       .  S
C179       C1518   1.437       .  S
C181       C1502   1.438       .  S
C183       C1510   1.441       .  S
C184        O185   1.267   1_565  A
C184       C1530   1.432       .  S
C186        H187   1.112       .  S
C186        C192   1.534       .  S
C186        C191   1.549       .  S
C186        C190   1.536       .  S
C188        H189   1.111       .  S
C188        C194   1.549       .  S
C188        C193   1.550       .  S
C188        C195   1.563       .  S
C190        C193   1.378       .  D
C190       C1542   1.498       .  S
C191        C194   1.382       .  D
C191       C1481   1.501       .  S
C192        C195   1.370       .  D
C192       C1490   1.488       .  S
C193       C1473   1.507       .  S
C194       C1485   1.502       .  S
C195       C1477   1.503       .  S
C196        H197   1.108       .  S
C196        C202   1.548       .  S
C196        C201   1.559   1_455  S
C196        C200   1.549       .  S
C198        H199   1.109       .  S
C198        C204   1.536       .  S
C198        C203   1.547       .  S
C198        C205   1.567   1_655  S
C200        C203   1.378   1_455  D
C200       C1462   1.501       .  S
C201        C204   1.370       .  D
C201       C1526   1.497       .  S
C202        C205   1.378       .  D
C202       C1497   1.521       .  S
C203       C1458   1.506       .  S
C204       C1469   1.501       .  S
C205       C1466   1.504       .  S
C206        C207   1.551       .  S
C206        C212   1.550       .  S
C206        C210   1.528       .  S
C206       C1453   1.541       .  S
C207        C208   1.379       .  D
C207        H214   1.086       .  S
C208        C209   1.540       .  S
C208       C1465   1.502       .  S
C209        H215   1.111       .  S
C209        C213   1.538       .  S
C209        C211   1.525       .  S
C210        C211   1.357       .  D
C210        H216   1.077       .  S
C211       C1449   1.461       .  S
C212        C213   1.375       .  D
C212        H217   1.086       .  S
C213       C1761   1.499       .  S
C218        C219   1.549       .  S
C218        C224   1.554       .  S
C218        C222   1.530       .  S
C218       C1654   1.537       .  S
C219        C220   1.375       .  D
C219        H226   1.086       .  S
C220        C221   1.529       .  S
C220       C1709   1.485       .  S
C221        H227   1.112       .  S
C221        C225   1.529       .  S
C221        C223   1.506       .  S
C222        C223   1.362       .  D
C222        H228   1.082       .  S
C223       C1446   1.441       .  S
C224        C225   1.378       .  D
C224        H229   1.085       .  S
C225       C1622   1.500       .  S
C230        C231   1.524       .  S
C230        C236   1.550       .  S
C230        C234   1.546       .  S
C230       C1558   1.524       .  S
C231        C232   1.350       .  D
C231        H238   1.087       .  S
C232        C233   1.531       .  S
C232       C1441   1.449       .  S
C233        H239   1.109       .  S
C233        C237   1.532       .  S
C233        C235   1.539       .  S
C234        C235   1.375       .  D
C234        H240   1.086       .  S
C235       C1438   1.498       .  S
C236        C237   1.375       .  D
C236        H241   1.085       .  S
C237       C1470   1.492       .  S
C242        C243   1.531       .  S
C242        C248   1.554       .  S
C242        C246   1.565       .  S
C242       C1630   1.549       .  S
C243        C244   1.355       .  D
C243        H250   1.080       .  S
C244        C245   1.523       .  S
C244       C1433   1.463       .  S
C245        H251   1.110       .  S
C245        C249   1.529       .  S
C245        C247   1.540       .  S
C246        C247   1.386       .  D
C246        H252   1.085       .  S
C247       C1614   1.519       .  S
C248        C249   1.371       .  D
C248        H253   1.083       .  S
C249       C1489   1.492       .  S
C254        C255   1.564       .  S
C254        C260   1.549       .  S
C254        C258   1.519       .  S
C254       C1429   1.539       .  S
C255        C256   1.387       .  D
C255        H262   1.085       .  S
C256        C257   1.533       .  S
C256       C1482   1.507       .  S
C257        H263   1.111       .  S
C257        C261   1.536       .  S
C257        C259   1.522       .  S
C258        C259   1.355       .  D
C258        H264   1.083       .  S
C259       C1426   1.454       .  S
C260        C261   1.374       .  D
C260        H265   1.085       .  S
C261       C1422   1.504       .  S
C266        C267   1.523       .  S
C266        C272   1.548       .  S
C266        C270   1.556       .  S
C266       C1417   1.546       .  S
C267        C268   1.356       .  D
C267        H274   1.082       .  S
C268        C269   1.527       .  S
C268       C1413   1.457       .  S
C269        H275   1.108       .  S
C269        C273   1.543       .  S
C269        C271   1.544       .  S
C270        C271   1.385       .  D
C270        H276   1.085       .  S
C271       C1754   1.516       .  S
C272        C273   1.376       .  D
C272        H277   1.084       .  S
C273       C1714   1.505       .  S
O278        C294   1.270       .  A
O278       Zn284   1.964       .  S
C279        O295   1.275       .  A
C279        O292   1.263       .  A
C279       C1442   1.439       .  S
O280        C293   1.270       .  A
O280       Cd287   2.043       .  S
O281        C299   1.265       .  A
O281       Cd290   1.985       .  S
O282        C296   1.270       .  A
O282       Cd286   2.010       .  S
O283        C294   1.268       .  A
O283       Cd286   2.032   1_455  S
Zn284       O295   1.978   1_455  S
Zn284       O297   1.939       .  S
Zn284       O289   1.852   1_455  S
O285        C296   1.267       .  A
O285       Cd290   2.035       .  S
Cd286       O288   2.019   1_655  S
Cd286       O289   1.932       .  S
Cd287       O291   1.995       .  S
Cd287       O300   2.026   1_455  S
Cd287       O289   1.958   1_455  S
O288        C298   1.269       .  A
O289       Cd290   1.917       .  S
Cd290       O292   2.001       .  S
O291        C298   1.267       .  A
C293        O297   1.267       .  A
C293       C1450   1.451       .  S
C294       C1414   1.445       .  S
C296       C1434   1.440       .  S
C298       C1445   1.421       .  S
C299        O300   1.266       .  A
C299       C1425   1.443       .  S
C301        C302   1.524       .  S
C301        C307   1.554       .  S
C301        C305   1.550       .  S
C301       C1410   1.534       .  S
C302        C303   1.356       .  D
C302        H309   1.081       .  S
C303        C304   1.522       .  S
C303       C1405   1.450       .  S
C304        H310   1.107       .  S
C304        C308   1.537       .  S
C304        C306   1.541       .  S
C305        C306   1.379       .  D
C305        H311   1.086       .  S
C306       C1634   1.506       .  S
C307        C308   1.376       .  D
C307        H312   1.085       .  S
C308       C1689   1.504       .  S
C313        C314   1.544       .  S
C313        C319   1.545       .  S
C313        C317   1.525       .  S
C313       C1401   1.529       .  S
C314        C315   1.377       .  D
C314        H321   1.086       .  S
C315        C316   1.550       .  S
C315       C1730   1.503       .  S
C316        H322   1.111       .  S
C316        C320   1.543       .  S
C316        C318   1.523       .  S
C317        C318   1.357       .  D
C317        H323   1.084       .  S
C318       C1398   1.452       .  S
C319        C320   1.369       .  D
C319        H324   1.085       .  S
C320       C1642   1.493       .  S
C325        C326   1.532       .  S
C325        C331   1.549       .  S
C325        C329   1.554       .  S
C325       C1393   1.544       .  S
C326        C327   1.361       .  D
C326        H333   1.078       .  S
C327        C328   1.525       .  S
C327       C1390   1.462       .  S
C328        H334   1.111       .  S
C328        C332   1.540       .  S
C328        C330   1.537       .  S
C329        C330   1.379       .  D
C329        H335   1.086       .  S
C330       C1381   1.504       .  S
C331        C332   1.375       .  D
C331        H336   1.084       .  S
C332       C1386   1.504       .  S
C337        C338   1.556       .  S
C337        C343   1.548       .  S
C337        C341   1.521       .  S
C337       C1377   1.539       .  S
C338        C339   1.384       .  D
C338        H345   1.085       .  S
C339        C340   1.539       .  S
C339       C1369   1.507       .  S
C340        H346   1.111       .  S
C340        C344   1.536       .  S
C340        C342   1.519       .  S
C341        C342   1.354       .  D
C341        H347   1.084       .  S
C342       C1373   1.445       .  S
C343        C344   1.377       .  D
C343        H348   1.085       .  S
C344       C1365   1.498       .  S
C349        C350   1.525       .  S
C349        C355   1.543       .  S
C349        C353   1.553       .  S
C349       C1361   1.541       .  S
C350        C351   1.354       .  D
C350        H357   1.084       .  S
C351        C352   1.532       .  S
C351       C1358   1.454       .  S
C352        H358   1.107       .  S
C352        C356   1.548       .  S
C352        C354   1.548       .  S
C353        C354   1.383       .  D
C353        H359   1.085       .  S
C354       C1353   1.512       .  S
C355        C356   1.366       .  D
C355        H360   1.085       .  S
C356       C1738   1.498       .  S
C361        C362   1.555       .  S
C361        C367   1.545       .  S
C361        C365   1.524       .  S
C361       C1702   1.536       .  S
C362        C363   1.382       .  D
C362        H369   1.085       .  S
C363        C364   1.535       .  S
C363       C1685   1.500       .  S
C364        H370   1.111       .  S
C364        C368   1.534       .  S
C364        C366   1.514       .  S
C365        C366   1.356       .  D
C365        H371   1.084       .  S
C366       C1349   1.445       .  S
C367        C368   1.374       .  D
C367        H372   1.086       .  S
C368       C1345   1.491       .  S
O373        C389   1.269       .  A
O373       Zn379   1.984   1_556  S
C374        O390   1.270       .  A
C374        O387   1.265       .  A
C374       C1397   1.439       .  S
O375        C388   1.272       .  A
O375       Cd382   2.008       .  S
O376        C394   1.267       .  A
O376       Cd385   1.988       .  S
O377        C391   1.265       .  A
O377       Cd381   2.022   1_554  S
O378        C389   1.267       .  A
O378       Cd381   1.971       .  S
Zn379       O390   1.950       .  S
Zn379       O392   1.979   1_554  S
Zn379       O384   1.888       .  S
O380        C391   1.267       .  A
O380       Cd385   1.996       .  S
Cd381       O383   2.007       .  S
Cd381       O384   1.916   1_556  S
Cd382       O386   2.051       .  S
Cd382       O395   2.036       .  S
Cd382       O384   1.954   1_556  S
O383        C393   1.268       .  A
O384       Cd385   1.924       .  S
Cd385       O387   2.028       .  S
O386        C393   1.270       .  A
C388        O392   1.267       .  A
C388       C1357   1.455       .  S
C389       C1374   1.439       .  S
C391       C1350   1.439       .  S
C393       C1389   1.455       .  S
C394        O395   1.268   1_554  A
C394       C1406   1.447       .  S
C396        H397   1.109       .  S
C396        C402   1.544       .  S
C396        C401   1.562       .  S
C396        C400   1.530       .  S
C398        H399   1.107       .  S
C398        C404   1.551       .  S
C398        C403   1.557       .  S
C398        C405   1.559       .  S
C400        C403   1.370       .  D
C400       C1454   1.494       .  S
C401        C404   1.384       .  D
C401       C1337   1.513       .  S
C402        C405   1.365       .  D
C402       C1341   1.491       .  S
C403       C1333   1.493       .  S
C404       C1385   1.513       .  S
C405       C1370   1.509       .  S
C406        C407   1.529       .  S
C406        C412   1.549       .  S
C406        C410   1.558       .  S
C406       C1554   1.547       .  S
C407        C408   1.362       .  D
C407        H414   1.079       .  S
C408        C409   1.517       .  S
C408       C1329   1.451       .  S
C409        H415   1.109       .  S
C409        C413   1.538       .  S
C409        C411   1.539       .  S
C410        C411   1.383       .  D
C410        H416   1.085       .  S
C411       C1638   1.514       .  S
C412        C413   1.374       .  D
C412        H417   1.084       .  S
C413       C1325   1.507       .  S
C418        C419   1.525       .  S
C418        C424   1.533       .  S
C418        C422   1.550       .  S
C418       C1321   1.533       .  S
C419        C420   1.367       .  D
C419        H426   1.086       .  S
C420        C421   1.518       .  S
C420       C1317   1.457       .  S
C421        H427   1.109       .  S
C421        C425   1.550       .  S
C421        C423   1.541       .  S
C422        C423   1.379       .  D
C422        H428   1.085       .  S
C423       C1313   1.499       .  S
C424        C425   1.367       .  D
C424        H429   1.085       .  S
C425       C1486   1.495       .  S
C430        C431   1.529       .  S
C430        C436   1.553       .  S
C430        C434   1.574       .  S
C430       C1309   1.546       .  S
C431        C432   1.356       .  D
C431        H438   1.081       .  S
C432        C433   1.511       .  S
C432       C1306   1.450       .  S
C433        H439   1.113       .  S
C433        C437   1.514       .  S
C433        C435   1.522       .  S
C434        C435   1.389       .  D
C434        H440   1.085       .  S
C435       C1757   1.503       .  S
C436        C437   1.369       .  D
C436        H441   1.083       .  S
C437       C1342   1.476       .  S
C442        C443   1.547       .  S
C442        C448   1.539       .  S
C442        C446   1.530       .  S
C442       C1697   1.533       .  S
C443        C444   1.377       .  D
C443        H450   1.086       .  S
C444        C445   1.544       .  S
C444       C1298   1.497       .  S
C445        H451   1.111       .  S
C445        C449   1.548       .  S
C445        C447   1.519       .  S
C446        C447   1.360       .  D
C446        H452   1.081       .  S
C447       C1301   1.453       .  S
C448        C449   1.366       .  D
C448        H453   1.086       .  S
C449       C1766   1.493       .  S
C454        C455   1.537       .  S
C454        C460   1.543       .  S
C454        C458   1.526       .  S
C454       C1678   1.527       .  S
C455        C456   1.374       .  D
C455        H462   1.086       .  S
C456        C457   1.559       .  S
C456       C1478   1.508       .  S
C457        H463   1.110       .  S
C457        C461   1.547       .  S
C457        C459   1.522       .  S
C458        C459   1.361       .  D
C458        H464   1.084       .  S
C459       C1293   1.451       .  S
C460        C461   1.370       .  D
C460        H465   1.086       .  S
C461       C1645   1.498       .  S
C466        C467   1.565       .  S
C466        C472   1.562       .  S
C466        C470   1.524       .  S
C466       C1650   1.542       .  S
C467        C468   1.385       .  D
C467        H474   1.085       .  S
C468        C469   1.532       .  S
C468       C1338   1.509       .  S
C469        H475   1.112       .  S
C469        C473   1.520       .  S
C469        C471   1.522       .  S
C470        C471   1.354       .  D
C470        H476   1.083       .  S
C471       C1289   1.453       .  S
C472        C473   1.376       .  D
C472        H477   1.085       .  S
C473       C1285   1.491       .  S
O478        C494   1.268       .  A
O478       Zn484   1.985       .  S
C479        O495   1.271       .  A
C479        O492   1.271       .  A
C479       C1294   1.446       .  S
O480        C493   1.262       .  A
O480       Cd487   1.989       .  S
O481        C499   1.273       .  A
O481       Cd490   2.024       .  S
O482        C496   1.269       .  A
O482       Cd486   2.033       .  S
O483        C494   1.271       .  A
O483       Cd486   1.998       .  S
Zn484       O495   1.943       .  S
Zn484       O497   1.990       .  S
Zn484       O489   1.859       .  S
O485        C496   1.273       .  A
O485       Cd490   2.025       .  S
Cd486       O488   2.033       .  S
Cd486       O489   1.910       .  S
Cd487       O491   1.995       .  S
Cd487       O500   2.003       .  S
Cd487       O489   1.921       .  S
O488        C498   1.273       .  A
O489       Cd490   1.917       .  S
Cd490       O492   2.042       .  S
O491        C498   1.264       .  A
C493        O497   1.272       .  A
C493       C1318   1.440       .  S
C494       C1290   1.440       .  S
C496       C1302   1.444       .  S
C498       C1305   1.442       .  S
C499        O500   1.265       .  A
C499       C1330   1.444       .  S
C501        H502   1.106       .  S
C501        C507   1.552       .  S
C501        C506   1.559       .  S
C501        C505   1.552       .  S
C503        H504   1.109       .  S
C503        C509   1.550       .  S
C503        C508   1.572       .  S
C503        C510   1.543       .  S
C505        C508   1.374       .  D
C505       C1281   1.515       .  S
C506        C509   1.373       .  D
C506       C1277   1.513       .  S
C507        C510   1.373       .  D
C507       C1273   1.501       .  S
C508       C1354   1.515       .  S
C509       C1366   1.501       .  S
C510       C1310   1.499       .  S
C511        H512   1.109       .  S
C511        C517   1.555       .  S
C511        C516   1.561   1_565  S
C511        C515   1.542       .  S
C513        H514   1.108       .  S
C513        C519   1.536       .  S
C513        C518   1.562   1_545  S
C513        C520   1.542       .  S
C515        C518   1.374       .  D
C515       C1266   1.517       .  S
C516        C519   1.369       .  D
C516       C1257   1.493       .  S
C517        C520   1.377   1_565  D
C517       C1253   1.500       .  S
C518       C1262   1.494       .  S
C519       C1269   1.500       .  S
C520       C1521   1.507       .  S
C521        H522   1.109       .  S
C521        C527   1.539       .  S
C521        C526   1.564   1_554  S
C521        C525   1.543       .  S
C523        H524   1.108       .  S
C523        C529   1.543       .  S
C523        C528   1.552       .  S
C523        C530   1.572   1_556  S
C525        C528   1.371   1_554  D
C525       C1234   1.492       .  S
C526        C529   1.375       .  D
C526       C1241   1.501       .  S
C527        C530   1.376       .  D
C527       C1250   1.512       .  S
C528       C1378   1.504       .  S
C529       C1245   1.512       .  S
C530       C1238   1.506       .  S
C531        C532   1.526       .  S
C531        C537   1.549       .  S
C531        C535   1.563       .  S
C531       C1229   1.552       .  S
C532        C533   1.358       .  D
C532        H539   1.081       .  S
C533        C534   1.519       .  S
C533       C1225   1.450       .  S
C534        H540   1.111       .  S
C534        C538   1.541       .  S
C534        C536   1.534       .  S
C535        C536   1.387       .  D
C535        H541   1.085       .  S
C536       C1278   1.510       .  S
C537        C538   1.375       .  D
C537        H542   1.084       .  S
C538       C1246   1.507       .  S
C543        C544   1.571       .  S
C543        C549   1.558       .  S
C543        C547   1.527       .  S
C543       C1726   1.542       .  S
C544        C545   1.387       .  D
C544        H551   1.085       .  S
C545        C546   1.528       .  S
C545       C1217   1.505       .  S
C546        H552   1.112       .  S
C546        C550   1.527       .  S
C546        C548   1.520       .  S
C547        C548   1.352       .  D
C547        H553   1.084       .  S
C548       C1221   1.454       .  S
C549        C550   1.375       .  D
C549        H554   1.085       .  S
C550       C1282   1.501       .  S
C555        C556   1.555       .  S
C555        C561   1.551       .  S
C555        C559   1.525       .  S
C555       C1213   1.543       .  S
C556        C557   1.380       .  D
C556        H563   1.085       .  S
C557        C558   1.537       .  S
C557       C1237   1.502       .  S
C558        H564   1.112       .  S
C558        C562   1.543       .  S
C558        C560   1.518       .  S
C559        C560   1.355       .  D
C559        H565   1.079       .  S
C560       C1210   1.444       .  S
C561        C562   1.377       .  D
C561        H566   1.082       .  S
C562       C1265   1.511       .  S
C567        C568   1.529       .  S
C567        C573   1.543       .  S
C567        C571   1.557       .  S
C567       C1205   1.537       .  S
C568        C569   1.358       .  D
C568        H575   1.080       .  S
C569        C570   1.513       .  S
C569       C1202   1.449       .  S
C570        H576   1.112       .  S
C570        C574   1.539       .  S
C570        C572   1.529       .  S
C571        C572   1.381       .  D
C571        H577   1.085       .  S
C572       C1258   1.491       .  S
C573        C574   1.372       .  D
C573        H578   1.082       .  S
C574       C1693   1.503       .  S
C579        C580   1.520       .  S
C579        C585   1.547       .  S
C579        C583   1.551       .  S
C579       C1197   1.530       .  S
C580        C581   1.352       .  D
C580        H587   1.084       .  S
C581        C582   1.518       .  S
C581       C1193   1.444       .  S
C582        H588   1.112       .  S
C582        C586   1.538       .  S
C582        C584   1.534       .  S
C583        C584   1.379       .  D
C583        H589   1.085       .  S
C584       C1189   1.491       .  S
C585        C586   1.376       .  D
C585        H590   1.085       .  S
C586       C1185   1.499       .  S
C591        C592   1.546       .  S
C591        C597   1.537       .  S
C591        C595   1.530       .  S
C591       C1582   1.532       .  S
C592        C593   1.376       .  D
C592        H599   1.085       .  S
C593        C594   1.546       .  S
C593       C1682   1.497       .  S
C594        H600   1.108       .  S
C594        C598   1.551       .  S
C594        C596   1.517       .  S
C595        C596   1.354       .  D
C595        H601   1.085       .  S
C596       C1182   1.441       .  S
C597        C598   1.369       .  D
C597        H602   1.083       .  S
C598       C1177   1.502       .  S
O603        C619   1.266       .  A
O603       Zn609   1.972   1_565  S
C604        O620   1.267       .  A
C604        O617   1.269       .  A
C604       C1194   1.438       .  S
O605        C618   1.268   1_554  A
O605       Cd612   2.044   1_565  S
O606        C624   1.269       .  A
O606       Cd615   2.050       .  S
O607        C621   1.269       .  A
O607       Cd611   2.030   1_545  S
O608        C619   1.269       .  A
O608       Cd611   2.000   1_556  S
Zn609       O620   1.907       .  S
Zn609       O622   1.927   1_545  S
Zn609       O614   1.822       .  S
O610        C621   1.272       .  A
O610       Cd615   2.001       .  S
Cd611       O613   1.999       .  S
Cd611       O614   1.904   1_564  S
Cd612       O616   2.029   1_545  S
Cd612       O625   1.998       .  S
Cd612       O614   1.937   1_554  S
O613        C623   1.268       .  A
O614       Cd615   1.935   1_556  S
Cd615       O617   2.032   1_554  S
O616        C623   1.268       .  A
C618        O622   1.268       .  A
C618       C1222   1.451       .  S
C619       C1226   1.441       .  S
C621       C1201   1.433       .  S
C623       C1209   1.439       .  S
C624        O625   1.272       .  A
C624       C1181   1.452       .  S
C626        H627   1.110       .  S
C626        C632   1.554       .  S
C626        C631   1.565   1_655  S
C626        C630   1.543       .  S
C628        H629   1.109       .  S
C628        C634   1.539       .  S
C628        C633   1.563   1_455  S
C628        C635   1.543       .  S
C630        C633   1.373       .  D
C630       C1170   1.510       .  S
C631        C634   1.374       .  D
C631       C1162   1.504       .  S
C632        C635   1.376   1_655  D
C632       C1550   1.497       .  S
C633       C1165   1.502       .  S
C634       C1174   1.502       .  S
C635       C1418   1.501       .  S
C636        H637   1.112       .  S
C636        C642   1.542       .  S
C636        C641   1.546   1_554  S
C636        C640   1.539       .  S
C638        H639   1.111       .  S
C638        C644   1.543       .  S
C638        C643   1.564   1_556  S
C638        C645   1.541       .  S
C640        C643   1.383       .  D
C640       C1178   1.509       .  S
C641        C644   1.368       .  D
C641       C1190   1.493       .  S
C642        C645   1.377   1_554  D
C642       C1409   1.495       .  S
C643       C1153   1.498       .  S
C644       C1157   1.498       .  S
C645       C1149   1.496       .  S
C646        H647   1.108       .  S
C646        C652   1.548   1_565  S
C646        C651   1.565   1_565  S
C646        C650   1.537       .  S
C648        H649   1.109       .  S
C648        C654   1.550       .  S
C648        C653   1.573   1_545  S
C648        C655   1.557       .  S
C650        C653   1.375       .  D
C650       C1146   1.507       .  S
C651        C654   1.376       .  D
C651       C1142   1.501       .  S
C652        C655   1.378       .  D
C652       C1230   1.506   1_545  S
C653       C1494   1.509       .  S
C654       C1506   1.524       .  S
C655       C1138   1.506       .  S
C656        C657   1.523       .  S
C656        C662   1.550       .  S
C656        C660   1.547       .  S
C656       C1133   1.532       .  S
C657        C658   1.355       .  D
C657        H664   1.084       .  S
C658        C659   1.516       .  S
C658       C1129   1.443       .  S
C659        H665   1.112       .  S
C659        C663   1.539       .  S
C659        C661   1.541       .  S
C660        C661   1.376       .  D
C660        H666   1.086       .  S
C661       C1141   1.498       .  S
C662        C663   1.378       .  D
C662        H667   1.084       .  S
C663       C1125   1.501       .  S
C668        C669   1.515       .  S
C668        C674   1.550       .  S
C668        C672   1.550       .  S
C668       C1254   1.532       .  S
C669        C670   1.353       .  D
C669        H676   1.082       .  S
C670        C671   1.522       .  S
C670       C1122   1.449       .  S
C671        H677   1.111       .  S
C671        C675   1.544       .  S
C671        C673   1.540       .  S
C672        C673   1.380       .  D
C672        H678   1.085       .  S
C673       C1161   1.499       .  S
C674        C675   1.376       .  D
C674        H679   1.085       .  S
C675       C1249   1.505       .  S
C680        C681   1.524       .  S
C680        C686   1.541       .  S
C680        C684   1.550       .  S
C680       C1605   1.533       .  S
C681        C682   1.357       .  D
C681        H688   1.087       .  S
C682        C683   1.517       .  S
C682       C1118   1.443       .  S
C683        H689   1.108       .  S
C683        C687   1.550       .  S
C683        C685   1.542       .  S
C684        C685   1.380       .  D
C684        H690   1.086       .  S
C685       C1154   1.501       .  S
C686        C687   1.372       .  D
C686        H691   1.086       .  S
C687       C1598   1.504       .  S
C692        C693   1.556       .  S
C692        C698   1.551       .  S
C692        C696   1.528       .  S
C692       C1722   1.537       .  S
C693        C694   1.382       .  D
C693        H700   1.085       .  S
C694        C695   1.535       .  S
C694       C1590   1.503       .  S
C695        H701   1.111       .  S
C695        C699   1.534       .  S
C695        C697   1.526       .  S
C696        C697   1.362       .  D
C696        H702   1.084       .  S
C697       C1113   1.455       .  S
C698        C699   1.374       .  D
C698        H703   1.086       .  S
C699       C1169   1.506       .  S
C704        C705   1.552       .  S
C704        C710   1.548       .  S
C704        C708   1.522       .  S
C704       C1461   1.531       .  S
C705        C706   1.380       .  D
C705        H712   1.085       .  S
C706        C707   1.537       .  S
C706       C1242   1.499       .  S
C707        H713   1.107       .  S
C707        C711   1.540       .  S
C707        C709   1.531       .  S
C708        C709   1.353       .  D
C708        H714   1.086       .  S
C709       C1109   1.452       .  S
C710        C711   1.374       .  D
C710        H715   1.085       .  S
C711       C1145   1.502       .  S
C716        C717   1.555       .  S
C716        C722   1.548       .  S
C716        C720   1.524       .  S
C716       C1106   1.535       .  S
C717        C718   1.381       .  D
C717        H724   1.085       .  S
C718        C719   1.532       .  S
C718       C1097   1.497       .  S
C719        H725   1.111       .  S
C719        C723   1.534       .  S
C719        C721   1.518       .  S
C720        C721   1.355       .  D
C720        H726   1.082       .  S
C721       C1101   1.446       .  S
C722        C723   1.375       .  D
C722        H727   1.085       .  S
C723       C1158   1.498       .  S
O728        C744   1.269       .  A
O728       Zn734   1.948   1_554  S
C729        O745   1.266       .  A
C729        O742   1.266       .  A
C729       C1130   1.434       .  S
O730        C743   1.267       .  A
O730       Cd737   2.026   1_545  S
O731        C749   1.267       .  A
O731       Cd740   2.031   1_566  S
O732        C746   1.268       .  A
O732       Cd736   1.994   1_455  S
O733        C744   1.266       .  A
O733       Cd736   2.022   1_545  S
Zn734       O745   1.980   1_655  S
Zn734       O747   1.922       .  S
Zn734       O739   1.859   1_656  S
O735        C746   1.264   1_545  A
O735       Cd740   2.010       .  S
Cd736       O738   1.995       .  S
Cd736       O739   1.914   1_665  S
Cd737       O741   2.051       .  S
Cd737       O750   2.008   1_655  S
Cd737       O739   1.954   1_666  S
O738        C748   1.269       .  A
O739       Cd740   1.932       .  S
Cd740       O742   1.978   1_554  S
O741        C748   1.269   1_556  A
C743        O747   1.268       .  A
C743       C1102   1.443       .  S
C744       C1117   1.439       .  S
C746       C1121   1.431       .  S
C748       C1114   1.458       .  S
C749        O750   1.272       .  A
C749       C1110   1.452       .  S
C751        H752   1.108       .  S
C751        C757   1.543       .  S
C751        C756   1.559   1_556  S
C751        C755   1.542       .  S
C753        H754   1.109       .  S
C753        C759   1.542       .  S
C753        C758   1.560   1_554  S
C753        C760   1.541       .  S
C755        C758   1.374       .  D
C755       C1093   1.499       .  S
C756        C759   1.371       .  D
C756       C1089   1.506       .  S
C757        C760   1.373   1_556  D
C757       C1134   1.493       .  S
C758       C1382   1.507       .  S
C759       C1346   1.496       .  S
C760       C1206   1.490       .  S
C761        H762   1.109       .  S
C761        C767   1.540       .  S
C761        C766   1.554       .  S
C761        C765   1.549       .  S
C763        H764   1.108       .  S
C763        C769   1.548       .  S
C763        C768   1.559       .  S
C763        C770   1.550       .  S
C765        C768   1.374       .  D
C765       C1421   1.509       .  S
C766        C769   1.373       .  D
C766       C1437   1.501       .  S
C767        C770   1.377       .  D
C767       C1322   1.492       .  S
C768       C1082   1.503       .  S
C769       C1085   1.511       .  S
C770       C1362   1.497       .  S
C771        H772   1.109       .  S
C771        C777   1.542       .  S
C771        C776   1.559   1_455  S
C771        C775   1.548       .  S
C773        H774   1.109       .  S
C773        C779   1.546       .  S
C773        C778   1.538       .  S
C773        C780   1.557   1_655  S
C775        C778   1.381   1_455  D
C775       C1514   1.503       .  S
C776        C779   1.375       .  D
C776       C1098   1.497       .  S
C777        C780   1.371       .  D
C777       C1126   1.509       .  S
C778       C1430   1.494       .  S
C779       C1077   1.512       .  S
C780       C1073   1.499       .  S
C781        C782   1.523       .  S
C781        C787   1.550       .  S
C781        C785   1.559       .  S
C781       C1150   1.535       .  S
C782        C783   1.353       .  D
C782        H789   1.088       .  S
C783        C784   1.530       .  S
C783       C1069   1.453       .  S
C784        H790   1.106       .  S
C784        C788   1.541       .  S
C784        C786   1.532       .  S
C785        C786   1.381       .  D
C785        H791   1.085       .  S
C786       C1081   1.502       .  S
C787        C788   1.376       .  D
C787        H792   1.084       .  S
C788       C1078   1.506       .  S
C793        C794   1.555       .  S
C793        C799   1.543       .  S
C793        C797   1.518       .  S
C793       C1334   1.526       .  S
C794        C795   1.382       .  D
C794        H801   1.085       .  S
C795        C796   1.534       .  S
C795       C1074   1.496       .  S
C796        H802   1.111       .  S
C796        C800   1.538       .  S
C796        C798   1.516       .  S
C797        C798   1.348       .  D
C797        H803   1.085       .  S
C798       C1065   1.441       .  S
C799        C800   1.373       .  D
C799        H804   1.085       .  S
C800       C1094   1.490       .  S
C805        C806   1.565       .  S
C805        C811   1.548       .  S
C805        C809   1.523       .  S
C805       C1457   1.552       .  S
C806        C807   1.389       .  D
C806        H813   1.085       .  S
C807        C808   1.537       .  S
C807       C1734   1.513       .  S
C808        H814   1.109       .  S
C808        C812   1.539       .  S
C808        C810   1.516       .  S
C809        C810   1.355       .  D
C809        H815   1.080       .  S
C810       C1061   1.446       .  S
C811        C812   1.375       .  D
C811        H816   1.083       .  S
C812       C1086   1.507       .  S
C817        C818   1.529       .  S
C817        C823   1.552       .  S
C817        C821   1.554       .  S
C817       C1602   1.542       .  S
C818        C819   1.360       .  D
C818        H825   1.078       .  S
C819        C820   1.527       .  S
C819       C1058   1.457       .  S
C820        H826   1.111       .  S
C820        C824   1.543       .  S
C820        C822   1.535       .  S
C821        C822   1.379       .  D
C821        H827   1.086       .  S
C822       C1090   1.502       .  S
C823        C824   1.377       .  D
C823        H828   1.083       .  S
C824       C1718   1.514       .  S
C829        C830   1.516       .  S
C829        C835   1.551       .  S
C829        C833   1.548       .  S
C829       C1626   1.530       .  S
C830        C831   1.350       .  D
C830        H837   1.086       .  S
C831        C832   1.523       .  S
C831       C1053   1.445       .  S
C832        H838   1.111       .  S
C832        C836   1.548       .  S
C832        C834   1.540       .  S
C833        C834   1.378       .  D
C833        H839   1.086       .  S
C834       C1166   1.493       .  S
C835        C836   1.382       .  D
C835        H840   1.084       .  S
C836       C1742   1.519       .  S
C841        C842   1.554       .  S
C841        C847   1.545       .  S
C841        C845   1.525       .  S
C841       C1233   1.534       .  S
C842        C843   1.380       .  D
C842        H849   1.085       .  S
C843        C844   1.535       .  S
C843       C1706   1.497       .  S
C844        H850   1.112       .  S
C844        C848   1.539       .  S
C844        C846   1.515       .  S
C845        C846   1.353       .  D
C845        H851   1.083       .  S
C846       C1049   1.443       .  S
C847        C848   1.375       .  D
C847        H852   1.085       .  S
C848       C1173   1.498       .  S
O853        C869   1.266       .  A
O853       Zn859   1.931   1_455  S
C854        O870   1.265       .  A
C854        O867   1.269       .  A
C854       C1062   1.434       .  S
O855        C868   1.268       .  A
O855       Cd862   2.027       .  S
O856        C874   1.267       .  A
O856       Cd865   2.031       .  S
O857        C871   1.265       .  A
O857       Cd861   1.967       .  S
O858        C869   1.264       .  A
O858       Cd861   2.016   1_554  S
Zn859       O870   1.967   1_554  S
Zn859       O872   1.915       .  S
Zn859       O864   1.852   1_654  S
O860        C871   1.267       .  A
O860       Cd865   2.026   1_455  S
Cd861       O863   1.984   1_556  S
Cd861       O864   1.907       .  S
Cd862       O866   2.053       .  S
Cd862       O875   2.007   1_554  S
Cd862       O864   1.953   1_654  S
O863        C873   1.267       .  A
O864       Cd865   1.947   1_455  S
Cd865       O867   1.995       .  S
O866        C873   1.270   1_655  A
C868        O872   1.265       .  A
C868       C1054   1.438       .  S
C869       C1050   1.434       .  S
C871       C1066   1.433       .  S
C873       C1057   1.454       .  S
C874        O875   1.272       .  A
C874       C1070   1.450       .  S
C876        H877   1.110       .  S
C876        C882   1.543       .  S
C876        C881   1.567       .  S
C876        C880   1.540       .  S
C878        H879   1.109       .  S
C878        C884   1.543       .  S
C878        C883   1.553       .  S
C878        C885   1.561       .  S
C880        C883   1.374       .  D
C880       C1214   1.494       .  S
C881        C884   1.373       .  D
C881       C1041   1.504       .  S
C882        C885   1.372       .  D
C882       C1045   1.503       .  S
C883       C1402   1.495       .  S
C884       C1326   1.512       .  S
C885       C1297   1.505       .  S
C886        H887   1.109       .  S
C886        C892   1.547       .  S
C886        C891   1.565       .  S
C886        C890   1.549       .  S
C888        H889   1.109       .  S
C888        C894   1.546       .  S
C888        C893   1.562       .  S
C888        C895   1.542       .  S
C890        C893   1.372       .  D
C890       C1038   1.509       .  S
C891        C894   1.379       .  D
C891       C1034   1.513       .  S
C892        C895   1.373       .  D
C892       C1198   1.494       .  S
C893       C1314   1.507       .  S
C894       C1286   1.508       .  S
C895       C1394   1.497       .  S
C896        H897   1.108       .  S
C896        C902   1.544       .  S
C896        C901   1.554   1_565  S
C896        C900   1.545       .  S
C898        H899   1.109       .  S
C898        C904   1.546       .  S
C898        C903   1.542       .  S
C898        C905   1.564   1_545  S
C900        C903   1.374   1_565  D
C900       C1534   1.496       .  S
C901        C904   1.370       .  D
C901       C1025   1.504       .  S
C902        C905   1.384       .  D
C902       C1029   1.509       .  S
C903       C1105   1.496       .  S
C904       C1186   1.504       .  S
C905       C1218   1.514       .  S
C906        C907   1.526       .  S
C906        C912   1.552       .  S
C906        C910   1.571       .  S
C906       C1137   1.542       .  S
C907        C908   1.358       .  D
C907        H914   1.083       .  S
C908        C909   1.517       .  S
C908       C1021   1.453       .  S
C909        H915   1.113       .  S
C909        C913   1.520       .  S
C909        C911   1.530       .  S
C910        C911   1.388       .  D
C910        H916   1.085       .  S
C911       C1033   1.509       .  S
C912        C913   1.371       .  D
C912        H917   1.086       .  S
C913       C1666   1.483       .  S
C918        C919   1.521       .  S
C918        C924   1.546       .  S
C918        C922   1.552       .  S
C918       C1274   1.532       .  S
C919        C920   1.356       .  D
C919        H926   1.085       .  S
C920        C921   1.520       .  S
C920       C1017   1.448       .  S
C921        H927   1.111       .  S
C921        C925   1.540       .  S
C921        C923   1.540       .  S
C922        C923   1.381       .  D
C922        H928   1.085       .  S
C923       C1562   1.503       .  S
C924        C925   1.375       .  D
C924        H929   1.085       .  S
C925       C1030   1.499       .  S
C930        C931   1.559       .  S
C930        C936   1.551       .  S
C930        C934   1.528       .  S
C930       C1474   1.550       .  S
C931        C932   1.381       .  D
C931        H938   1.085       .  S
C932        C933   1.531       .  S
C932       C1026   1.501       .  S
C933        H939   1.112       .  S
C933        C937   1.534       .  S
C933        C935   1.510       .  S
C934        C935   1.363       .  D
C934        H940   1.079       .  S
C935       C1013   1.449       .  S
C936        C937   1.378       .  D
C936        H941   1.085       .  S
C937       C1037   1.501       .  S
C942        C943   1.525       .  S
C942        C948   1.555       .  S
C942        C946   1.545       .  S
C942       C1746   1.526       .  S
C943        C944   1.357       .  D
C943        H950   1.085       .  S
C944        C945   1.514       .  S
C944       C1009   1.438       .  S
C945        H951   1.112       .  S
C945        C949   1.529       .  S
C945        C947   1.536       .  S
C946        C947   1.374       .  D
C946        H952   1.086       .  S
C947       C1261   1.493       .  S
C948        C949   1.377       .  D
C948        H953   1.086       .  S
C949       C1046   1.496       .  S
C954        C955   1.553       .  S
C954        C960   1.548       .  S
C954        C958   1.529       .  S
C954       C1578   1.538       .  S
C955        C956   1.378       .  D
C955        H962   1.085       .  S
C956        C957   1.532       .  S
C956       C1042   1.498       .  S
C957        H963   1.112       .  S
C957        C961   1.537       .  S
C957        C959   1.511       .  S
C958        C959   1.363       .  D
C958        H964   1.082       .  S
C959       C1005   1.449       .  S
C960        C961   1.375       .  D
C960        H965   1.085       .  S
C961       C1574   1.498       .  S
C966        C967   1.575       .  S
C966        C972   1.555       .  S
C966        C970   1.527       .  S
C966       C1674   1.547       .  S
C967        C968   1.389       .  D
C967        H974   1.085       .  S
C968        C969   1.522       .  S
C968       C1658   1.502       .  S
C969        H975   1.113       .  S
C969        C973   1.520       .  S
C969        C971   1.513       .  S
C970        C971   1.354       .  D
C970        H976   1.081       .  S
C971       C1001   1.445       .  S
C972        C973   1.372       .  D
C972        H977   1.086       .  S
C973       C1270   1.489       .  S
O978        C994   1.271       .  A
O978       Zn984   1.938       .  S
C979        O995   1.268       .  A
C979        O992   1.266       .  A
C979       C1010   1.442       .  S
O980        C993   1.263       .  A
O980       Cd987   1.989   1_565  S
O981        C999   1.269       .  A
O981       Cd990   1.994   1_545  S
O982        C996   1.275       .  A
O982       Cd986   2.026       .  S
O983        C994   1.270       .  A
O983       Cd986   2.034   1_565  S
Zn984       O995   1.992       .  S
Zn984       O997   1.973       .  S
Zn984       O989   1.844       .  S
O985        C996   1.265       .  A
O985       Cd990   2.020   1_545  S
Cd986       O988   2.034       .  S
Cd986       O989   1.908   1_545  S
Cd987       O991   1.988       .  S
Cd987      O1000   2.013       .  S
Cd987       O989   1.922   1_545  S
O988        C998   1.275       .  A
O989       Cd990   1.881       .  S
Cd990       O992   1.960       .  S
O991        C998   1.264       .  A
C993        O997   1.273       .  A
C993       C1006   1.438       .  S
C994       C1018   1.441       .  S
C996       C1022   1.440       .  S
C998       C1014   1.437       .  S
C999       O1000   1.265       .  A
C999       C1002   1.443       .  S
C1001      C1002   1.335       .  D
C1001      H1003   1.087       .  S
C1002      H1004   1.085       .  S
C1005      C1006   1.328       .  D
C1005      H1007   1.087       .  S
C1006      H1008   1.086       .  S
C1009      C1010   1.336       .  D
C1009      H1011   1.088       .  S
C1010      H1012   1.086       .  S
C1013      C1014   1.328       .  D
C1013      H1015   1.087       .  S
C1014      H1016   1.087       .  S
C1017      C1018   1.337       .  D
C1017      H1019   1.087       .  S
C1018      H1020   1.086       .  S
C1021      C1022   1.332       .  D
C1021      H1023   1.089       .  S
C1022      H1024   1.085       .  S
C1025      C1026   1.364       .  D
C1025      H1027   1.085       .  S
C1026      H1028   1.086       .  S
C1029      C1030   1.352       .  D
C1029      H1031   1.075       .  S
C1030      H1032   1.082       .  S
C1033      C1034   1.346       .  D
C1033      H1035   1.086       .  S
C1034      H1036   1.085       .  S
C1037      C1038   1.348       .  D
C1037      H1039   1.083       .  S
C1038      H1040   1.084       .  S
C1041      C1042   1.365       .  D
C1041      H1043   1.085       .  S
C1042      H1044   1.086       .  S
C1045      C1046   1.347       .  D
C1045      H1047   1.086       .  S
C1046      H1048   1.083       .  S
C1049      C1050   1.334       .  D
C1049      H1051   1.088       .  S
C1050      H1052   1.087       .  S
C1053      C1054   1.341       .  D
C1053      H1055   1.087       .  S
C1054      H1056   1.086       .  S
C1057      C1058   1.342       .  D
C1057      H1059   1.083       .  S
C1058      H1060   1.086       .  S
C1061      C1062   1.337       .  D
C1061      H1063   1.088       .  S
C1062      H1064   1.087       .  S
C1065      C1066   1.339       .  D
C1065      H1067   1.087       .  S
C1066      H1068   1.087       .  S
C1069      C1070   1.333       .  D
C1069      H1071   1.088       .  S
C1070      H1072   1.082       .  S
C1073      C1074   1.362       .  D
C1073      H1075   1.085       .  S
C1074      H1076   1.086       .  S
C1077      C1078   1.352       .  D
C1077      H1079   1.084       .  S
C1078      H1080   1.083       .  S
C1081      C1082   1.364       .  D
C1081      H1083   1.086       .  S
C1082      H1084   1.086       .  S
C1085      C1086   1.350       .  D
C1085      H1087   1.083       .  S
C1086      H1088   1.083       .  S
C1089      C1090   1.363       .  D
C1089      H1091   1.085       .  S
C1090      H1092   1.086       .  S
C1093      C1094   1.348       .  D
C1093      H1095   1.085       .  S
C1094      H1096   1.083       .  S
C1097      C1098   1.360       .  D
C1097      H1099   1.085       .  S
C1098      H1100   1.085       .  S
C1101      C1102   1.338       .  D
C1101      H1103   1.087       .  S
C1102      H1104   1.085       .  S
C1105      C1106   1.367       .  D
C1105      H1107   1.083       .  S
C1106      H1108   1.082       .  S
C1109      C1110   1.333       .  D
C1109      H1111   1.088       .  S
C1110      H1112   1.083       .  S
C1113      C1114   1.340       .  D
C1113      H1115   1.086       .  S
C1114      H1116   1.084       .  S
C1117      C1118   1.332       .  D
C1117      H1119   1.088       .  S
C1118      H1120   1.087       .  S
C1121      C1122   1.337       .  D
C1121      H1123   1.084       .  S
C1122      H1124   1.087       .  S
C1125      C1126   1.350       .  D
C1125      H1127   1.083       .  S
C1126      H1128   1.085       .  S
C1129      C1130   1.336       .  D
C1129      H1131   1.088       .  S
C1130      H1132   1.087       .  S
C1133      C1134   1.366       .  D
C1133      H1135   1.082       .  S
C1134      H1136   1.084       .  S
C1137      C1138   1.367       .  D
C1137      H1139   1.085       .  S
C1138      H1140   1.085       .  S
C1141      C1142   1.359       .  D
C1141      H1143   1.087       .  S
C1142      H1144   1.085       .  S
C1145      C1146   1.350       .  D
C1145      H1147   1.083       .  S
C1146      H1148   1.084       .  S
C1149      C1150   1.364       .  D
C1149      H1151   1.086       .  S
C1150      H1152   1.086       .  S
C1153      C1154   1.359       .  D
C1153      H1155   1.085       .  S
C1154      H1156   1.085       .  S
C1157      C1158   1.346       .  D
C1157      H1159   1.085       .  S
C1158      H1160   1.085       .  S
C1161      C1162   1.362       .  D
C1161      H1163   1.086       .  S
C1162      H1164   1.085       .  S
C1165      C1166   1.362       .  D
C1165      H1167   1.086       .  S
C1166      H1168   1.087       .  S
C1169      C1170   1.349       .  D
C1169      H1171   1.084       .  S
C1170      H1172   1.085       .  S
C1173      C1174   1.349       .  D
C1173      H1175   1.083       .  S
C1174      H1176   1.084       .  S
C1177      C1178   1.349       .  D
C1177      H1179   1.080       .  S
C1178      H1180   1.082       .  S
C1181      C1182   1.332       .  D
C1181      H1183   1.084       .  S
C1182      H1184   1.089       .  S
C1185      C1186   1.347       .  D
C1185      H1187   1.084       .  S
C1186      H1188   1.084       .  S
C1189      C1190   1.357       .  D
C1189      H1191   1.086       .  S
C1190      H1192   1.086       .  S
C1193      C1194   1.339       .  D
C1193      H1195   1.087       .  S
C1194      H1196   1.086       .  S
C1197      C1198   1.365       .  D
C1197      H1199   1.079       .  S
C1198      H1200   1.085       .  S
C1201      C1202   1.337       .  D
C1201      H1203   1.086       .  S
C1202      H1204   1.089       .  S
C1205      C1206   1.367       .  D
C1205      H1207   1.085       .  S
C1206      H1208   1.079       .  S
C1209      C1210   1.336       .  D
C1209      H1211   1.087       .  S
C1210      H1212   1.088       .  S
C1213      C1214   1.370       .  D
C1213      H1215   1.084       .  S
C1214      H1216   1.079       .  S
C1217      C1218   1.345       .  D
C1217      H1219   1.086       .  S
C1218      H1220   1.085       .  S
C1221      C1222   1.340       .  D
C1221      H1223   1.087       .  S
C1222      H1224   1.084       .  S
C1225      C1226   1.335       .  D
C1225      H1227   1.088       .  S
C1226      H1228   1.086       .  S
C1229      C1230   1.375       .  D
C1229      H1231   1.085       .  S
C1230      H1232   1.081       .  S
C1233      C1234   1.366       .  D
C1233      H1235   1.083       .  S
C1234      H1236   1.083       .  S
C1237      C1238   1.364       .  D
C1237      H1239   1.086       .  S
C1238      H1240   1.085       .  S
C1241      C1242   1.361       .  D
C1241      H1243   1.085       .  S
C1242      H1244   1.087       .  S
C1245      C1246   1.353       .  D
C1245      H1247   1.084       .  S
C1246      H1248   1.083       .  S
C1249      C1250   1.354       .  D
C1249      H1251   1.083       .  S
C1250      H1252   1.084       .  S
C1253      C1254   1.367       .  D
C1253      H1255   1.085       .  S
C1254      H1256   1.077       .  S
C1257      C1258   1.363       .  D
C1257      H1259   1.085       .  S
C1258      H1260   1.086       .  S
C1261      C1262   1.357       .  D
C1261      H1263   1.087       .  S
C1262      H1264   1.085       .  S
C1265      C1266   1.355       .  D
C1265      H1267   1.084       .  S
C1266      H1268   1.083       .  S
C1269      C1270   1.341       .  D
C1269      H1271   1.085       .  S
C1270      H1272   1.084       .  S
C1273      C1274   1.363       .  D
C1273      H1275   1.086       .  S
C1274      H1276   1.084       .  S
C1277      C1278   1.368       .  D
C1277      H1279   1.085       .  S
C1278      H1280   1.086       .  S
C1281      C1282   1.346       .  D
C1281      H1283   1.085       .  S
C1282      H1284   1.080       .  S
C1285      C1286   1.344       .  D
C1285      H1287   1.083       .  S
C1286      H1288   1.083       .  S
C1289      C1290   1.337       .  D
C1289      H1291   1.089       .  S
C1290      H1292   1.084       .  S
C1293      C1294   1.338       .  D
C1293      H1295   1.087       .  S
C1294      H1296   1.087       .  S
C1297      C1298   1.360       .  D
C1297      H1299   1.085       .  S
C1298      H1300   1.086       .  S
C1301      C1302   1.334       .  D
C1301      H1303   1.087       .  S
C1302      H1304   1.087       .  S
C1305      C1306   1.331       .  D
C1305      H1307   1.086       .  S
C1306      H1308   1.087       .  S
C1309      C1310   1.371       .  D
C1309      H1311   1.086       .  S
C1310      H1312   1.081       .  S
C1313      C1314   1.363       .  D
C1313      H1315   1.086       .  S
C1314      H1316   1.086       .  S
C1317      C1318   1.329       .  D
C1317      H1319   1.087       .  S
C1318      H1320   1.087       .  S
C1321      C1322   1.361       .  D
C1321      H1323   1.086       .  S
C1322      H1324   1.086       .  S
C1325      C1326   1.351       .  D
C1325      H1327   1.084       .  S
C1326      H1328   1.084       .  S
C1329      C1330   1.332       .  D
C1329      H1331   1.087       .  S
C1330      H1332   1.085       .  S
C1333      C1334   1.363       .  D
C1333      H1335   1.086       .  S
C1334      H1336   1.080       .  S
C1337      C1338   1.346       .  D
C1337      H1339   1.085       .  S
C1338      H1340   1.086       .  S
C1341      C1342   1.336       .  D
C1341      H1343   1.087       .  S
C1342      H1344   1.083       .  S
C1345      C1346   1.345       .  D
C1345      H1347   1.083       .  S
C1346      H1348   1.085       .  S
C1349      C1350   1.334       .  D
C1349      H1351   1.087       .  S
C1350      H1352   1.087       .  S
C1353      C1354   1.366       .  D
C1353      H1355   1.087       .  S
C1354      H1356   1.085       .  S
C1357      C1358   1.333       .  D
C1357      H1359   1.083       .  S
C1358      H1360   1.088       .  S
C1361      C1362   1.367       .  D
C1361      H1363   1.086       .  S
C1362      H1364   1.083       .  S
C1365      C1366   1.347       .  D
C1365      H1367   1.083       .  S
C1366      H1368   1.084       .  S
C1369      C1370   1.366       .  D
C1369      H1371   1.086       .  S
C1370      H1372   1.085       .  S
C1373      C1374   1.338       .  D
C1373      H1375   1.087       .  S
C1374      H1376   1.085       .  S
C1377      C1378   1.366       .  D
C1377      H1379   1.082       .  S
C1378      H1380   1.085       .  S
C1381      C1382   1.363       .  D
C1381      H1383   1.086       .  S
C1382      H1384   1.085       .  S
C1385      C1386   1.353       .  D
C1385      H1387   1.078       .  S
C1386      H1388   1.082       .  S
C1389      C1390   1.342       .  D
C1389      H1391   1.083       .  S
C1390      H1392   1.087       .  S
C1393      C1394   1.368       .  D
C1393      H1395   1.085       .  S
C1394      H1396   1.080       .  S
C1397      C1398   1.337       .  D
C1397      H1399   1.085       .  S
C1398      H1400   1.088       .  S
C1401      C1402   1.363       .  D
C1401      H1403   1.080       .  S
C1402      H1404   1.084       .  S
C1405      C1406   1.339       .  D
C1405      H1407   1.087       .  S
C1406      H1408   1.085       .  S
C1409      C1410   1.369       .  D
C1409      H1411   1.081       .  S
C1410      H1412   1.081       .  S
C1413      C1414   1.339       .  D
C1413      H1415   1.087       .  S
C1414      H1416   1.087       .  S
C1417      C1418   1.371       .  D
C1417      H1419   1.085       .  S
C1418      H1420   1.082       .  S
C1421      C1422   1.348       .  D
C1421      H1423   1.084       .  S
C1422      H1424   1.083       .  S
C1425      C1426   1.339       .  D
C1425      H1427   1.082       .  S
C1426      H1428   1.087       .  S
C1429      C1430   1.368       .  D
C1429      H1431   1.084       .  S
C1430      H1432   1.086       .  S
C1433      C1434   1.340       .  D
C1433      H1435   1.089       .  S
C1434      H1436   1.083       .  S
C1437      C1438   1.358       .  D
C1437      H1439   1.083       .  S
C1438      H1440   1.086       .  S
C1441      C1442   1.325       .  D
C1441      H1443   1.088       .  S
C1442      H1444   1.083       .  S
C1445      C1446   1.327       .  D
C1445      H1447   1.088       .  S
C1446      H1448   1.088       .  S
C1449      C1450   1.344       .  D
C1449      H1451   1.087       .  S
C1450      H1452   1.083       .  S
C1453      C1454   1.368       .  D
C1453      H1455   1.085       .  S
C1454      H1456   1.080       .  S
C1457      C1458   1.377       .  D
C1457      H1459   1.082       .  S
C1458      H1460   1.079       .  S
C1461      C1462   1.365       .  D
C1461      H1463   1.081       .  S
C1462      H1464   1.085       .  S
C1465      C1466   1.360       .  D
C1465      H1467   1.087       .  S
C1466      H1468   1.085       .  S
C1469      C1470   1.345       .  D
C1469      H1471   1.085       .  S
C1470      H1472   1.083       .  S
C1473      C1474   1.376       .  D
C1473      H1475   1.078       .  S
C1474      H1476   1.082       .  S
C1477      C1478   1.354       .  D
C1477      H1479   1.084       .  S
C1478      H1480   1.087       .  S
C1481      C1482   1.364       .  D
C1481      H1483   1.085       .  S
C1482      H1484   1.084       .  S
C1485      C1486   1.347       .  D
C1485      H1487   1.083       .  S
C1486      H1488   1.082       .  S
C1489      C1490   1.353       .  D
C1489      H1491   1.083       .  S
C1490      H1492   1.083       .  S
C1493      C1494   1.367       .  D
C1493      H1495   1.086       .  S
C1494      H1496   1.085       .  S
C1497      C1498   1.356       .  D
C1497      H1499   1.084       .  S
C1498      H1500   1.082       .  S
C1501      C1502   1.333       .  D
C1501      H1503   1.088       .  S
C1502      H1504   1.086       .  S
C1505      C1506   1.355       .  D
C1505      H1507   1.084       .  S
C1506      H1508   1.084       .  S
C1509      C1510   1.341       .  D
C1509      H1511   1.087       .  S
C1510      H1512   1.085       .  S
C1513      C1514   1.373       .  D
C1513      H1515   1.078       .  S
C1514      H1516   1.084       .  S
C1517      C1518   1.329       .  D
C1517      H1519   1.089       .  S
C1518      H1520   1.087       .  S
C1521      C1522   1.377       .  D
C1521      H1523   1.079       .  S
C1522      H1524   1.083       .  S
C1525      C1526   1.362       .  D
C1525      H1527   1.086       .  S
C1526      H1528   1.085       .  S
C1529      C1530   1.331       .  D
C1529      H1531   1.087       .  S
C1530      H1532   1.085       .  S
C1533      C1534   1.369       .  D
C1533      H1535   1.080       .  S
C1534      H1536   1.083       .  S
C1537      C1538   1.341       .  D
C1537      H1539   1.083       .  S
C1538      H1540   1.087       .  S
C1541      C1542   1.366       .  D
C1541      H1543   1.086       .  S
C1542      H1544   1.086       .  S
C1545      C1546   1.337       .  D
C1545      H1547   1.088       .  S
C1546      H1548   1.087       .  S
C1549      C1550   1.364       .  D
C1549      H1551   1.085       .  S
C1550      H1552   1.085       .  S
C1553      C1554   1.371       .  D
C1553      H1555   1.080       .  S
C1554      H1556   1.084       .  S
C1557      C1558   1.362       .  D
C1557      H1559   1.085       .  S
C1558      H1560   1.080       .  S
C1561      C1562   1.363       .  D
C1561      H1563   1.085       .  S
C1562      H1564   1.087       .  S
C1565      C1566   1.349       .  D
C1565      H1567   1.085       .  S
C1566      H1568   1.086       .  S
C1569      C1570   1.349       .  D
C1569      H1571   1.084       .  S
C1570      H1572   1.084       .  S
C1573      C1574   1.350       .  D
C1573      H1575   1.079       .  S
C1574      H1576   1.082       .  S
C1577      C1578   1.366       .  D
C1577      H1579   1.083       .  S
C1578      H1580   1.084       .  S
C1581      C1582   1.362       .  D
C1581      H1583   1.081       .  S
C1582      H1584   1.087       .  S
C1585      C1586   1.362       .  D
C1585      H1587   1.085       .  S
C1586      H1588   1.086       .  S
C1589      C1590   1.361       .  D
C1589      H1591   1.085       .  S
C1590      H1592   1.086       .  S
C1593      C1594   1.345       .  D
C1593      H1595   1.083       .  S
C1594      H1596   1.086       .  S
C1597      C1598   1.354       .  D
C1597      H1599   1.082       .  S
C1598      H1600   1.081       .  S
C1601      C1602   1.369       .  D
C1601      H1603   1.081       .  S
C1602      H1604   1.084       .  S
C1605      C1606   1.361       .  D
C1605      H1607   1.086       .  S
C1606      H1608   1.086       .  S
C1609      C1610   1.368       .  D
C1609      H1611   1.085       .  S
C1610      H1612   1.086       .  S
C1613      C1614   1.353       .  D
C1613      H1615   1.085       .  S
C1614      H1616   1.086       .  S
C1617      C1618   1.360       .  D
C1617      H1619   1.077       .  S
C1618      H1620   1.081       .  S
C1621      C1622   1.344       .  D
C1621      H1623   1.085       .  S
C1622      H1624   1.083       .  S
C1625      C1626   1.364       .  D
C1625      H1627   1.086       .  S
C1626      H1628   1.086       .  S
C1629      C1630   1.371       .  D
C1629      H1631   1.084       .  S
C1630      H1632   1.085       .  S
C1633      C1634   1.358       .  D
C1633      H1635   1.081       .  S
C1634      H1636   1.087       .  S
C1637      C1638   1.365       .  D
C1637      H1639   1.083       .  S
C1638      H1640   1.086       .  S
C1641      C1642   1.352       .  D
C1641      H1643   1.086       .  S
C1642      H1644   1.080       .  S
C1645      C1646   1.357       .  D
C1645      H1647   1.081       .  S
C1646      H1648   1.085       .  S
C1649      C1650   1.372       .  D
C1649      H1651   1.085       .  S
C1650      H1652   1.082       .  S
C1653      C1654   1.369       .  D
C1653      H1655   1.080       .  S
C1654      H1656   1.082       .  S
C1657      C1658   1.348       .  D
C1657      H1659   1.085       .  S
C1658      H1660   1.086       .  S
C1661      C1662   1.362       .  D
C1661      H1663   1.085       .  S
C1662      H1664   1.087       .  S
C1665      C1666   1.341       .  D
C1665      H1667   1.087       .  S
C1666      H1668   1.083       .  S
C1669      C1670   1.344       .  D
C1669      H1671   1.083       .  S
C1670      H1672   1.085       .  S
C1673      C1674   1.371       .  D
C1673      H1675   1.082       .  S
C1674      H1676   1.086       .  S
C1677      C1678   1.362       .  D
C1677      H1679   1.084       .  S
C1678      H1680   1.081       .  S
C1681      C1682   1.362       .  D
C1681      H1683   1.084       .  S
C1682      H1684   1.085       .  S
C1685      C1686   1.362       .  D
C1685      H1687   1.086       .  S
C1686      H1688   1.085       .  S
C1689      C1690   1.351       .  D
C1689      H1691   1.083       .  S
C1690      H1692   1.085       .  S
C1693      C1694   1.350       .  D
C1693      H1695   1.083       .  S
C1694      H1696   1.083       .  S
C1697      C1698   1.363       .  D
C1697      H1699   1.085       .  S
C1698      H1700   1.080       .  S
C1701      C1702   1.365       .  D
C1701      H1703   1.084       .  S
C1702      H1704   1.083       .  S
C1705      C1706   1.363       .  D
C1705      H1707   1.085       .  S
C1706      H1708   1.085       .  S
C1709      C1710   1.356       .  D
C1709      H1711   1.086       .  S
C1710      H1712   1.086       .  S
C1713      C1714   1.353       .  D
C1713      H1715   1.083       .  S
C1714      H1716   1.082       .  S
C1717      C1718   1.354       .  D
C1717      H1719   1.083       .  S
C1718      H1720   1.084       .  S
C1721      C1722   1.363       .  D
C1721      H1723   1.086       .  S
C1722      H1724   1.082       .  S
C1725      C1726   1.367       .  D
C1725      H1727   1.085       .  S
C1726      H1728   1.086       .  S
C1729      C1730   1.356       .  D
C1729      H1731   1.085       .  S
C1730      H1732   1.087       .  S
C1733      C1734   1.367       .  D
C1733      H1735   1.083       .  S
C1734      H1736   1.086       .  S
C1737      C1738   1.351       .  D
C1737      H1739   1.086       .  S
C1738      H1740   1.078       .  S
C1741      C1742   1.355       .  D
C1741      H1743   1.082       .  S
C1742      H1744   1.084       .  S
C1745      C1746   1.365       .  D
C1745      H1747   1.085       .  S
C1746      H1748   1.078       .  S
C1749      C1750   1.364       .  D
C1749      H1751   1.086       .  S
C1750      H1752   1.086       .  S
C1753      C1754   1.365       .  D
C1753      H1755   1.082       .  S
C1754      H1756   1.087       .  S
C1757      C1758   1.343       .  D
C1757      H1759   1.087       .  S
C1758      H1760   1.085       .  S
C1761      C1762   1.348       .  D
C1761      H1763   1.083       .  S
C1762      H1764   1.081       .  S
C1765      C1766   1.350       .  D
C1765      H1767   1.085       .  S
C1766      H1768   1.080       .  S
