geometry optimzed in LAMMPS
_audit_creation_date              2020-11-30 
_audit_creation_method            'lammps2cif' 
_symmetry_space_group_name_H-M    'P1' 
_symmetry_Int_Tables_number       1 
_symmetry_cell_setting            triclinic 
loop_ 
_symmetry_equiv_pos_as_xyz 
  x,y,z 
_cell_length_a                    40.91854289 
_cell_length_b                    52.97487812394234 
_cell_length_c                    41.18195836839478 
_cell_angle_alpha                 89.88597718356327 
_cell_angle_beta                  90.0001137791653 
_cell_angle_gamma                 90.0097939289716 
loop_ 
_atom_site_label 
_atom_site_type_symbol 
_atom_site_fract_x 
_atom_site_fract_y 
_atom_site_fract_z 
_atom_site_charge 
N1          N  0.46221354  0.47140549  0.43927600    -0.06500
N2          N  0.45682851  0.45302934  0.41832731    -0.58600
N3          N  0.43977315  0.02957560  0.46117947    -0.06100
N4          N  0.41880501  0.04805469  0.45573535    -0.60700
N5          N  0.46262424  0.02937927  0.43869688    -0.05700
N6          N  0.45769366  0.04768574  0.41747279    -0.58600
N7          N  0.43955365  0.47148711  0.46195219    -0.05400
N8          N  0.41834811  0.45311023  0.45699507    -0.61100
C9          C  0.42950137  0.44176160  0.42978775     0.95700
C10         C  0.43037803  0.05918005  0.42848128     0.95500
N11         N  0.46215799  0.03014618  0.06033696    -0.06700
N12         N  0.45683039  0.04856417  0.08123167    -0.59200
N13         N  0.43922985  0.47198012  0.03850722    -0.04800
N14         N  0.41797081  0.45371025  0.04408475    -0.60400
N15         N  0.46192950  0.47219576  0.06113253    -0.06700
N16         N  0.45663033  0.45411813  0.08257670    -0.59400
N17         N  0.43946001  0.03002091  0.03770104    -0.04400
N18         N  0.41822088  0.04836749  0.04269120    -0.60500
Mn19       Mn  0.43847145  0.50075446  0.99981316     1.18400
C20         C  0.42945300  0.05978342  0.06982831     0.97800
C21         C  0.42923899  0.44273924  0.07157526     0.98500
N22         N  0.03966040  0.02916170  0.43894032    -0.06700
N23         N  0.04521093  0.04740875  0.41774835    -0.63000
N24         N  0.06190209  0.47118210  0.46224637    -0.05500
N25         N  0.08312742  0.45283791  0.45721065    -0.63700
N26         N  0.03926080  0.47114568  0.43955185    -0.06200
N27         N  0.04458100  0.45276054  0.41860654    -0.63300
N28         N  0.06227425  0.02912674  0.46165528    -0.05100
N29         N  0.08367647  0.04732181  0.45643788    -0.64000
Mn30       Mn  0.00093068  0.00027350  0.43809622     1.10700
C31         C  0.07265725  0.05856733  0.42906983     0.99000
C32         C  0.07192078  0.44149345  0.43001613     0.99100
N33         N  0.03876889  0.47186164  0.06127476    -0.06200
N34         N  0.04369821  0.45358969  0.08255353    -0.61600
N35         N  0.06201696  0.02964728  0.03802873    -0.05500
N36         N  0.08341075  0.04787340  0.04309396    -0.58300
N37         N  0.03927441  0.02985587  0.06061249    -0.06800
N38         N  0.04476946  0.04817961  0.08160327    -0.61200
N39         N  0.06168239  0.47167238  0.03886204    -0.05800
N40         N  0.08279297  0.45333296  0.04449207    -0.58300
Mn41       Mn  0.00052829  0.00104235  0.06180982     1.20200
Mn42       Mn  0.06295416  0.00038854  0.00019612     1.10100
Cl43       Cl  0.00071345  0.00061510  0.99997218    -0.86300
C44         C  0.07116237  0.44220554  0.07171200     0.96000
C45         C  0.07226590  0.05927311  0.07026615     0.95800
N46         N  0.28902657  0.27952499  0.18901215    -0.06500
N47         N  0.29407144  0.29777381  0.16774401    -0.58600
N48         N  0.31217261  0.22172996  0.21199207    -0.06100
N49         N  0.33367222  0.20360746  0.20675213    -0.60700
N50         N  0.28945805  0.22157808  0.18937262    -0.05700
N51         N  0.29502936  0.20336530  0.16824629    -0.58600
N52         N  0.31176223  0.27976669  0.21160235    -0.05400
N53         N  0.33278374  0.29822608  0.20618199    -0.61100
C54         C  0.32134002  0.30928572  0.17882443     0.95700
C55         C  0.32257711  0.19229958  0.17948340     0.95500
N56         N  0.28916642  0.22193514  0.31113552    -0.06700
N57         N  0.29446480  0.20378292  0.33248144    -0.59200
N58         N  0.31162800  0.27994261  0.28812176    -0.04800
N59         N  0.33282466  0.29829352  0.29323123    -0.60400
N60         N  0.28899961  0.27986979  0.31082996    -0.06700
N61         N  0.29441357  0.29811743  0.33196609    -0.59400
N62         N  0.31199177  0.22189806  0.28862246    -0.04400
N63         N  0.33332031  0.20368022  0.29418319    -0.60500
Mn64       Mn  0.31290358  0.25083411  0.25009177     1.18400
C65         C  0.32197653  0.19254425  0.32153216     0.97800
C66         C  0.32171516  0.30947035  0.32056619     0.98500
N67         N  0.21232547  0.22134034  0.18921424    -0.06700
N68         N  0.20690769  0.20311311  0.16805756    -0.63000
N69         N  0.18925057  0.27928046  0.21130410    -0.05500
N70         N  0.16780438  0.29738598  0.20562554    -0.63700
N71         N  0.21215872  0.27929930  0.18888405    -0.06200
N72         N  0.20689559  0.29747475  0.16755954    -0.63300
N73         N  0.18962245  0.22133511  0.21184100    -0.05100
N74         N  0.16833791  0.20306225  0.20664098    -0.64000
Mn75       Mn  0.25075438  0.25041353  0.18816359     1.10700
C76         C  0.17950120  0.19185401  0.17934755     0.99000
C77         C  0.17923821  0.30858809  0.17836794     0.99100
N78         N  0.21185527  0.27963853  0.31062820    -0.06200
N79         N  0.20628012  0.29785365  0.33175072    -0.61600
N80         N  0.18947895  0.22159322  0.28824919    -0.05500
N81         N  0.16822671  0.20329310  0.29345141    -0.58300
N82         N  0.21211346  0.22163621  0.31094560    -0.06800
N83         N  0.20672491  0.20333489  0.33210641    -0.61200
N84         N  0.18917570  0.27951884  0.28796938    -0.05800
N85         N  0.16767477  0.29763674  0.29320619    -0.58300
Mn86       Mn  0.25053451  0.25077418  0.31188690     1.20200
Mn87       Mn  0.18841078  0.25044657  0.24985096     1.10100
Cl88       Cl  0.25065755  0.25061504  0.25000725    -0.86300
C89         C  0.17874941  0.30893009  0.32048792     0.96000
C90         C  0.17935817  0.19206026  0.32078244     0.95800
C91         C  0.10129124  0.10801991  0.12247361     0.20000
C92         C  0.10201652  0.12333177  0.15020478    -0.39900
C93         C  0.12749027  0.14099557  0.15142998     0.19000
C94         C  0.15049533  0.14321977  0.12692196     0.21600
C95         C  0.14976547  0.12790780  0.09917800    -0.40400
C96         C  0.12429190  0.11023008  0.09795869     0.20400
N97         N  0.07966880  0.08972856  0.11558861    -0.33700
C98         C  0.08902974  0.08021526  0.08653319    -0.11200
C99         C  0.11674250  0.09248876  0.07473429    -0.30000
N100        N  0.17213654  0.16149571  0.13385834    -0.46600
C101        C  0.16277083  0.17096073  0.16294451    -0.05900
C102        C  0.13504756  0.15868639  0.17469599    -0.23300
H103        H  0.08408018  0.12161571  0.16940211     0.18500
H104        H  0.16771187  0.12961520  0.07998904     0.17300
H105        H  0.12966713  0.08883461  0.05229839     0.13600
H106        H  0.12212356  0.16230289  0.19714279     0.13500
H107        H  0.05991017  0.08395874  0.12985090     0.31600
H108        H  0.19191301  0.16727434  0.11962689     0.34400
C109        C  0.10087656  0.10823248  0.37763908     0.20000
C110        C  0.10065651  0.12454528  0.35078466    -0.39900
C111        C  0.12680028  0.14158959  0.34901528     0.19000
C112        C  0.15128189  0.14233438  0.37221965     0.21600
C113        C  0.15150307  0.12601800  0.39907882    -0.40400
C114        C  0.12535541  0.10896916  0.40084742     0.20400
N115        N  0.07886399  0.09026646  0.38481915    -0.33700
C116        C  0.08943573  0.07952734  0.41278267    -0.11200
C117        C  0.11832675  0.09065627  0.42356007    -0.30000
N118        N  0.17327363  0.16032098  0.36503682    -0.46600
C119        C  0.16267429  0.17105601  0.33707648    -0.05900
C120        C  0.13379806  0.15990598  0.32630858    -0.23300
H121        H  0.08154989  0.12400680  0.33262114     0.18500
H122        H  0.17060362  0.12656211  0.41724808     0.17300
H123        H  0.13233641  0.08590020  0.44501125     0.13600
H124        H  0.11976350  0.16466245  0.30487352     0.13500
H125        H  0.05802828  0.08554178  0.37149111     0.31600
H126        H  0.19410075  0.16506795  0.37836458     0.34400
C127        C  0.12662720  0.35721629  0.14896668     0.20000
C128        C  0.09863026  0.37247126  0.14785041    -0.39900
C129        C  0.09800173  0.39056919  0.12297094     0.19000
C130        C  0.12328472  0.39320754  0.10086058     0.21600
C131        C  0.15125607  0.37794269  0.10195807    -0.40400
C132        C  0.15189398  0.35986505  0.12684120     0.20400
N133        N  0.13320460  0.33868322  0.17028809    -0.33700
C134        C  0.16282613  0.32948996  0.16159350    -0.11200
C135        C  0.17526207  0.34217064  0.13461115    -0.30000
N136        N  0.11682970  0.41182402  0.07964162    -0.46600
C137        C  0.08727862  0.42111456  0.08837403    -0.05900
C138        C  0.07473565  0.40838454  0.11528022    -0.23300
H139        H  0.07885098  0.37044150  0.16511229     0.18500
H140        H  0.17106467  0.38000544  0.08473526     0.17300
H141        H  0.19827449  0.33887515  0.12237099     0.13600
H142        H  0.05176732  0.41176370  0.12756318     0.13500
H143        H  0.11844059  0.33260470  0.18946470     0.31400
H144        H  0.13166831  0.41793022  0.06053592     0.34400
C145        C  0.35100213  0.14324330  0.12738354     0.20000
C146        C  0.35087510  0.12728424  0.10023926    -0.39900
C147        C  0.37705628  0.11028961  0.09822260     0.19000
C148        C  0.40148400  0.10928737  0.12146599     0.21600
C149        C  0.40163175  0.12526731  0.14858836    -0.40400
C150        C  0.37544142  0.14225095  0.15061521     0.20400
N151        N  0.32893564  0.16107662  0.13484182    -0.33700
C152        C  0.33943005  0.17149291  0.16299628    -0.11200
C153        C  0.36833083  0.16026588  0.17362948    -0.30000
N154        N  0.42342325  0.09132875  0.11413660    -0.46600
C155        C  0.41285203  0.08083136  0.08606175    -0.05900
C156        C  0.38404850  0.09215333  0.07532920    -0.23300
H157        H  0.33177824  0.12801517  0.08207424     0.18500
H158        H  0.42068487  0.12449357  0.16679571     0.17300
H159        H  0.38230925  0.16478081  0.19516319     0.13600
H160        H  0.36999736  0.08756523  0.05386788     0.13500
H161        H  0.30812451  0.16594702  0.12154133     0.31600
H162        H  0.44415788  0.08638843  0.12751229     0.34400
C163        C  0.40012970  0.39326861  0.37734289     0.20000
C164        C  0.39889219  0.37834751  0.34927074    -0.39900
C165        C  0.37362148  0.36049389  0.34825737     0.19000
C166        C  0.35127796  0.35773616  0.37327555     0.21600
C167        C  0.35252818  0.37264947  0.40135992    -0.40400
C168        C  0.37779079  0.39051624  0.40236621     0.20400
N169        N  0.42162458  0.41168658  0.38409301    -0.33700
C170        C  0.41282065  0.42075116  0.41356037    -0.11200
C171        C  0.38562475  0.40803947  0.42577178    -0.30000
N172        N  0.32971576  0.33937328  0.36646222    -0.46600
C173        C  0.33847914  0.33036812  0.33695096    -0.05900
C174        C  0.36572316  0.34304554  0.32479187    -0.23300
H175        H  0.41630028  0.38049100  0.32966737     0.18500
H176        H  0.33509630  0.37052682  0.42094563     0.17300
H177        H  0.37317087  0.41130669  0.44856711     0.13600
H178        H  0.37814229  0.33982581  0.30196612     0.13500
H179        H  0.44089185  0.41786447  0.36945345     0.31600
H180        H  0.31041057  0.33321536  0.38106550     0.34400
C181        C  0.37934525  0.10931297  0.40055719     0.20000
C182        C  0.35254134  0.12580379  0.40080493    -0.39900
C183        C  0.35064004  0.14259273  0.37452154     0.19000
C184        C  0.37369680  0.14296166  0.34990330     0.21600
C185        C  0.40053513  0.12649373  0.34968234    -0.40400
C186        C  0.40241958  0.10968263  0.37595464     0.20400
N187        N  0.38649922  0.09140494  0.42256297    -0.33700
C188        C  0.41430493  0.08032111  0.41185693    -0.11200
C189        C  0.42502777  0.09119918  0.38290796    -0.30000
N190        N  0.36635917  0.16072351  0.32774973    -0.46600
C191        C  0.33843816  0.17168642  0.33837727    -0.05900
C192        C  0.32786244  0.16090943  0.36743718    -0.23300
H193        H  0.33445862  0.12553248  0.41998672     0.18500
H194        H  0.41856264  0.12671228  0.33044888     0.17300
H195        H  0.44630725  0.08610906  0.36874883     0.13600
H196        H  0.30649129  0.16589516  0.38152218     0.13500
H197        H  0.37320607  0.08689536  0.44344035     0.31600
H198        H  0.37954659  0.16516428  0.30678264     0.34400
C199        C  0.15056181  0.35824887  0.37227835     0.20000
C200        C  0.15095439  0.37448163  0.39914233    -0.39900
C201        C  0.12454481  0.39124116  0.40137744     0.19000
C202        C  0.09966522  0.39178937  0.37858684     0.21600
C203        C  0.09925493  0.37553700  0.35173718    -0.40400
C204        C  0.12567519  0.35878274  0.34949447     0.20400
N205        N  0.17275250  0.34053600  0.36471934    -0.33700
C206        C  0.16189650  0.32974496  0.33694081    -0.11200
C207        C  0.13263777  0.34060569  0.32665191    -0.30000
N208        N  0.07758694  0.40961520  0.38604554    -0.46600
C209        C  0.08852268  0.42046552  0.41375801    -0.05900
C210        C  0.11769509  0.40951408  0.42412008    -0.23300
H211        H  0.17040091  0.37411125  0.41695503     0.18500
H212        H  0.07984492  0.37594456  0.33388657     0.17300
H213        H  0.11832596  0.33573899  0.30546460     0.13600
H214        H  0.13207792  0.41443537  0.44523894     0.13500
H215        H  0.19388149  0.33598896  0.37771022     0.31600
H216        H  0.05651973  0.41423251  0.37299649     0.34400
C217        C  0.37225928  0.35946963  0.15080323     0.20000
C218        C  0.39882645  0.37619246  0.15116258    -0.39900
C219        C  0.40073835  0.39286475  0.12475495     0.19000
C220        C  0.37792315  0.39290029  0.09990994     0.21600
C221        C  0.35133860  0.37619187  0.09956560    -0.40400
C222        C  0.34943362  0.35951142  0.12596771     0.20400
N223        N  0.36507393  0.34166738  0.17294891    -0.33700
C224        C  0.33748254  0.33034498  0.16209932    -0.11200
C225        C  0.32695587  0.34093784  0.13291076    -0.30000
N226        N  0.38521482  0.41060914  0.07767232    -0.46600
C227        C  0.41287027  0.42186826  0.08847049    -0.05900
C228        C  0.42331418  0.41134504  0.11772881    -0.23300
H229        H  0.41671023  0.37619196  0.17052982     0.18500
H230        H  0.33349027  0.37615957  0.08016629     0.17300
H231        H  0.30584911  0.33563561  0.11862180     0.13600
H232        H  0.44448101  0.41658870  0.13196617     0.13500
H233        H  0.37817266  0.33741037  0.19403214     0.31600
H234        H  0.37218094  0.41481367  0.05653231     0.34400
N235        N  0.46221363  0.47140466  0.93927544    -0.06500
N236        N  0.45682859  0.45302858  0.91832663    -0.58600
N237        N  0.43977299  0.02957642  0.96117981    -0.06100
N238        N  0.41880472  0.04805540  0.95573557    -0.60700
N239        N  0.46262409  0.02938013  0.93869723    -0.05700
N240        N  0.45769342  0.04768655  0.91747306    -0.58600
N241        N  0.43955375  0.47148620  0.96195162    -0.05400
N242        N  0.41834819  0.45310934  0.95699441    -0.61100
C243        C  0.42950147  0.44176081  0.92978703     0.95700
C244        C  0.43037766  0.05918076  0.92848150     0.95500
N245        N  0.46215789  0.03014530  0.56033648    -0.06700
N246        N  0.45683034  0.04856333  0.58123114    -0.59200
N247        N  0.43922992  0.47198087  0.53850773    -0.04800
N248        N  0.41797108  0.45371084  0.54408501    -0.60400
N249        N  0.46192965  0.47219641  0.56113295    -0.06700
N250        N  0.45663073  0.45411851  0.58257684    -0.59400
N251        N  0.43945996  0.03002005  0.53770053    -0.04400
N252        N  0.41822088  0.04836672  0.54269062    -0.60500
Mn253      Mn  0.43847139  0.50075533  0.49981377     1.18400
C254        C  0.42945303  0.05978265  0.56982771     0.97800
C255        C  0.42923944  0.44273960  0.57157527     0.98500
N256        N  0.03966016  0.02916285  0.93894073    -0.06700
N257        N  0.04521031  0.04741002  0.91774881    -0.63000
N258        N  0.06190201  0.47118087  0.96224592    -0.05500
N259        N  0.08312726  0.45283659  0.95721014    -0.63700
N260        N  0.03926087  0.47114466  0.93955127    -0.06200
N261        N  0.04458101  0.45275961  0.91860586    -0.63300
N262        N  0.06227399  0.02912816  0.96165569    -0.05100
N263        N  0.08367579  0.04732355  0.95643841    -0.64000
Mn264      Mn  0.00093071  0.00027448  0.93809666     1.10700
C265        C  0.07265632  0.05856895  0.92907037     0.99000
C266        C  0.07192063  0.44149233  0.93001546     0.99100
N267        N  0.03876914  0.47186256  0.56127500    -0.06200
N268        N  0.04369857  0.45359050  0.58255360    -0.61600
N269        N  0.06201710  0.02964581  0.53802842    -0.05500
N270        N  0.08341114  0.04787177  0.54309373    -0.58300
N271        N  0.03927448  0.02985462  0.56061211    -0.06800
N272        N  0.04476970  0.04817833  0.58160288    -0.61200
N273        N  0.06168271  0.47167357  0.53886236    -0.05800
N274        N  0.08279349  0.45333427  0.54449229    -0.58300
Mn275      Mn  0.00052808  0.00104129  0.56180943     1.20200
Mn276      Mn  0.06295401  0.00038710  0.50019577     1.10100
Cl277      Cl  0.00071333  0.00061407  0.49997178    -0.86300
C278        C  0.07116289  0.44220661  0.57171206     0.96000
C279        C  0.07226636  0.05927159  0.57026584     0.95800
N280        N  0.28902665  0.27952462  0.68901011    -0.06500
N281        N  0.29407157  0.29777352  0.66774206    -0.58600
N282        N  0.31217246  0.22172963  0.71199025    -0.06100
N283        N  0.33367212  0.20360716  0.70675039    -0.60700
N284        N  0.28945798  0.22157774  0.68937076    -0.05700
N285        N  0.29502935  0.20336498  0.66824443    -0.58600
N286        N  0.31176227  0.27976628  0.71160036    -0.05400
N287        N  0.33278381  0.29822566  0.70618011    -0.61100
C288        C  0.32134016  0.30928537  0.67882260     0.95700
C289        C  0.32257707  0.19229928  0.67948163     0.95500
N290        N  0.28916607  0.22193490  0.81113368    -0.06700
N291        N  0.29446429  0.20378269  0.83247965    -0.59200
N292        N  0.31162797  0.27994237  0.78811975    -0.04800
N293        N  0.33282475  0.29829314  0.79322935    -0.60400
N294        N  0.28899951  0.27986959  0.81082791    -0.06700
N295        N  0.29441363  0.29811713  0.83196415    -0.59400
N296        N  0.31199153  0.22189774  0.78862070    -0.04400
N297        N  0.33331997  0.20367984  0.79418157    -0.60500
Mn298      Mn  0.31290349  0.25083377  0.75008988     1.18400
C299        C  0.32197601  0.19254394  0.82153053     0.97800
C300        C  0.32171532  0.30946998  0.82056433     0.98500
N301        N  0.21232537  0.22134003  0.68921212    -0.06700
N302        N  0.20690772  0.20311261  0.66805567    -0.63000
N303        N  0.18925058  0.27928022  0.71130187    -0.05500
N304        N  0.16780440  0.29738575  0.70562328    -0.63700
N305        N  0.21215879  0.27929907  0.68888187    -0.06200
N306        N  0.20689575  0.29747458  0.66755741    -0.63300
N307        N  0.18962233  0.22133485  0.71183889    -0.05100
N308        N  0.16833793  0.20306185  0.70663907    -0.64000
Mn309      Mn  0.25075436  0.25041321  0.68816148     1.10700
C310        C  0.17950132  0.19185347  0.67934576     0.99000
C311        C  0.17923831  0.30858789  0.67836575     0.99100
N312        N  0.21185520  0.27963851  0.81062580    -0.06200
N313        N  0.20628017  0.29785369  0.83174822    -0.61600
N314        N  0.18947873  0.22159315  0.78824708    -0.05500
N315        N  0.16822630  0.20329320  0.79344954    -0.58300
N316        N  0.21211314  0.22163625  0.81094356    -0.06800
N317        N  0.20672430  0.20333523  0.83210473    -0.61200
N318        N  0.18917565  0.27951880  0.78796699    -0.05800
N319        N  0.16767483  0.29763683  0.79320366    -0.58300
Mn320      Mn  0.25053430  0.25077407  0.81188478     1.20200
Mn321      Mn  0.18841064  0.25044640  0.74984874     1.10100
Cl322      Cl  0.25065742  0.25061475  0.75000515    -0.86300
C323        C  0.17874956  0.30893022  0.82048531     0.96000
C324        C  0.17935753  0.19206064  0.82078086     0.95800
C325        C  0.10129210  0.10801844  0.62247307     0.20000
C326        C  0.10201719  0.12333061  0.65020397    -0.39900
C327        C  0.12749100  0.14099439  0.65142898     0.19000
C328        C  0.15049622  0.14321829  0.62692108     0.21600
C329        C  0.14976660  0.12790598  0.59917741    -0.40400
C330        C  0.12429299  0.11022826  0.59795828     0.20400
N331        N  0.07966951  0.08972721  0.61558812    -0.33700
C332        C  0.08903048  0.08021363  0.58653289    -0.11200
C333        C  0.11674352  0.09248679  0.57473404    -0.30000
N334        N  0.17213731  0.16149444  0.63385717    -0.46600
C335        C  0.16277127  0.17095984  0.66294309    -0.05900
C336        C  0.13504802  0.15868553  0.67469466    -0.23300
H337        H  0.08408066  0.12161487  0.66940109     0.18500
H338        H  0.16771306  0.12961316  0.57998854     0.17300
H339        H  0.12966821  0.08883241  0.55229825     0.13600
H340        H  0.12212377  0.16230233  0.69714122     0.13500
H341        H  0.05991062  0.08395771  0.62985031     0.31600
H342        H  0.19191381  0.16727297  0.61962573     0.34400
C343        C  0.10087544  0.10823377  0.87763901     0.20000
C344        C  0.10065577  0.12454596  0.85078402    -0.39900
C345        C  0.12679931  0.14159049  0.84901463     0.19000
C346        C  0.15128032  0.14233604  0.87221959     0.21600
C347        C  0.15150103  0.12602034  0.89907942    -0.40400
C348        C  0.12535363  0.10897126  0.90084799     0.20400
N349        N  0.07886311  0.09026750  0.88481903    -0.33700
C350        C  0.08943443  0.07952911  0.91278319    -0.11200
C351        C  0.11832480  0.09065872  0.92356101    -0.30000
N352        N  0.17327205  0.16032259  0.86503646    -0.46600
C353        C  0.16267329  0.17105679  0.83707539    -0.05900
C354        C  0.13379741  0.15990634  0.82630729    -0.23300
H355        H  0.08154965  0.12400687  0.83262002     0.18500
H356        H  0.17060114  0.12656505  0.91724917     0.17300
H357        H  0.13233409  0.08590318  0.94501265     0.13600
H358        H  0.11976337  0.16466210  0.80487169     0.13500
H359        H  0.05802797  0.08554214  0.87149053     0.31600
H360        H  0.19409887  0.16507003  0.87836445     0.34400
C361        C  0.12662725  0.35721617  0.64896480     0.20000
C362        C  0.09862994  0.37247072  0.64784826    -0.39900
C363        C  0.09800179  0.39056935  0.62296967     0.19000
C364        C  0.12328551  0.39320873  0.60086035     0.21600
C365        C  0.15125728  0.37794435  0.60195812    -0.40400
C366        C  0.15189481  0.35986598  0.62684038     0.20400
N367        N  0.13320434  0.33868256  0.67028553    -0.33700
C368        C  0.16282642  0.32948999  0.66159157    -0.11200
C369        C  0.17526307  0.34217166  0.63461030    -0.30000
N370        N  0.11683073  0.41182567  0.57964202    -0.46600
C371        C  0.08727912  0.42111551  0.58837382    -0.05900
C372        C  0.07473551  0.40838457  0.61527899    -0.23300
H373        H  0.07885008  0.37044012  0.66510935     0.18500
H374        H  0.17106643  0.38000798  0.58473611     0.17300
H375        H  0.19827601  0.33887687  0.62237084     0.13600
H376        H  0.05176661  0.41176303  0.62756126     0.13500
H377        H  0.11843973  0.33260321  0.68946124     0.31400
H378        H  0.13166984  0.41793263  0.56053709     0.34400
C379        C  0.35100215  0.14324280  0.62738225     0.20000
C380        C  0.35087513  0.12728359  0.60023812    -0.39900
C381        C  0.37705635  0.11028901  0.59822159     0.19000
C382        C  0.40148410  0.10928691  0.62146496     0.21600
C383        C  0.40163181  0.12526700  0.64858724    -0.40400
C384        C  0.37544146  0.14225061  0.65061393     0.20400
N385        N  0.32893565  0.16107615  0.63484034    -0.33700
C386        C  0.33943009  0.17149262  0.66299466    -0.11200
C387        C  0.36833085  0.16026570  0.67362800    -0.30000
N388        N  0.42342334  0.09132829  0.61413571    -0.46600
C389        C  0.41285210  0.08083069  0.58606098    -0.05900
C390        C  0.38404857  0.09215262  0.57532836    -0.23300
H391        H  0.33177825  0.12801440  0.58207311     0.18500
H392        H  0.42068489  0.12449339  0.66679462     0.17300
H393        H  0.38230921  0.16478077  0.69516170     0.13600
H394        H  0.36999740  0.08756441  0.55386710     0.13500
H395        H  0.30812445  0.16594640  0.62153983     0.31600
H396        H  0.44415802  0.08638808  0.62751141     0.34400
C397        C  0.40012988  0.39326809  0.87734172     0.20000
C398        C  0.39889218  0.37834729  0.84926928    -0.39900
C399        C  0.37362173  0.36049344  0.84825592     0.19000
C400        C  0.35127856  0.35773527  0.87327433     0.21600
C401        C  0.35252897  0.37264830  0.90135895    -0.40400
C402        C  0.37779135  0.39051525  0.90236528     0.20400
N403        N  0.42162458  0.41168622  0.88409189    -0.33700
C404        C  0.41282084  0.42075038  0.91355953    -0.11200
C405        C  0.38562529  0.40803833  0.92577105    -0.30000
N406        N  0.32971648  0.33937239  0.86646085    -0.46600
C407        C  0.33847946  0.33036760  0.83694933    -0.05900
C408        C  0.36572325  0.34304529  0.82479016    -0.23300
H409        H  0.41629991  0.38049117  0.82966569     0.18500
H410        H  0.33509729  0.37052536  0.92094484     0.17300
H411        H  0.37317161  0.41130524  0.94856657     0.13600
H412        H  0.37814207  0.33982589  0.80196417     0.13500
H413        H  0.44089153  0.41786449  0.86945224     0.31600
H414        H  0.31041146  0.33321422  0.88106427     0.34400
C415        C  0.37934427  0.10931305  0.90055652     0.20000
C416        C  0.35254009  0.12580363  0.90080378    -0.39900
C417        C  0.35063904  0.14259254  0.87452031     0.19000
C418        C  0.37369628  0.14296169  0.84990251     0.21600
C419        C  0.40053478  0.12649398  0.84968205    -0.40400
C420        C  0.40241898  0.10968289  0.87595432     0.20400
N421        N  0.38649825  0.09140515  0.92256251    -0.33700
C422        C  0.41430434  0.08032160  0.91185687    -0.11200
C423        C  0.42502738  0.09119971  0.88290804    -0.30000
N424        N  0.36635891  0.16072354  0.82774884    -0.46600
C425        C  0.33843756  0.17168619  0.83837586    -0.05900
C426        C  0.32786139  0.16090907  0.86743552    -0.23300
H427        H  0.33445710  0.12553217  0.91998525     0.18500
H428        H  0.41856271  0.12671267  0.83044890     0.17300
H429        H  0.44630720  0.08610986  0.86874929     0.13600
H430        H  0.30648991  0.16589468  0.88152019     0.13500
H431        H  0.37320493  0.08689549  0.94343976     0.31600
H432        H  0.37954670  0.16516446  0.80678206     0.34400
C433        C  0.15056160  0.35824829  0.87227652     0.20000
C434        C  0.15095390  0.37448051  0.89914104    -0.39900
C435        C  0.12454438  0.39124008  0.90137628     0.19000
C436        C  0.09966517  0.39178889  0.87858528     0.21600
C437        C  0.09925526  0.37553708  0.85173506    -0.40400
C438        C  0.12567543  0.35878275  0.84949219     0.20400
N439        N  0.17275226  0.34053544  0.86471735    -0.33700
C440        C  0.16189670  0.32974503  0.83693828    -0.11200
C441        C  0.13263830  0.34060613  0.82664914    -0.30000
N442        N  0.07758699  0.40961476  0.88604412    -0.46600
C443        C  0.08852243  0.42046448  0.91375714    -0.05900
C444        C  0.11769450  0.40951263  0.92411936    -0.23300
H445        H  0.17040016  0.37410974  0.91695394     0.18500
H446        H  0.07984556  0.37594513  0.83388406     0.17300
H447        H  0.11832682  0.33573985  0.80546143     0.13600
H448        H  0.13207712  0.41443347  0.94523855     0.13500
H449        H  0.19388093  0.33598799  0.87770853     0.31600
H450        H  0.05652016  0.41423255  0.87299479     0.34400
C451        C  0.37225978  0.35946922  0.65080188     0.20000
C452        C  0.39882704  0.37619196  0.65116141    -0.39900
C453        C  0.40073903  0.39286443  0.62475399     0.19000
C454        C  0.37792376  0.39290028  0.59990904     0.21600
C455        C  0.35133905  0.37619198  0.59956453    -0.40400
C456        C  0.34943405  0.35951131  0.62596642     0.20400
N457        N  0.36507436  0.34166682  0.67294734    -0.33700
C458        C  0.33748283  0.33034465  0.66209766    -0.11200
C459        C  0.32695616  0.34093778  0.63290928    -0.30000
N460        N  0.38521544  0.41060934  0.57767174    -0.46600
C461        C  0.41287094  0.42186833  0.58847006    -0.05900
C462        C  0.42331492  0.41134475  0.61772813    -0.23300
H463        H  0.41671084  0.37619127  0.67052864     0.18500
H464        H  0.33349065  0.37615993  0.58016535     0.17300
H465        H  0.30584928  0.33563579  0.61862037     0.13600
H466        H  0.44448175  0.41658825  0.63196556     0.13500
H467        H  0.37817314  0.33740960  0.69403045     0.31600
H468        H  0.37218151  0.41481413  0.55653182     0.34400
N469        N  0.46221334  0.97140461  0.43927558    -0.06500
N470        N  0.45682819  0.95302854  0.41832677    -0.58600
N471        N  0.43977303  0.52957641  0.46117983    -0.06100
N472        N  0.41880479  0.54805541  0.45573563    -0.60700
N473        N  0.46262409  0.52938010  0.43869720    -0.05700
N474        N  0.45769340  0.54768650  0.41747303    -0.58600
N475        N  0.43955338  0.97148628  0.46195171    -0.05400
N476        N  0.41834765  0.95310955  0.45699440    -0.61100
C477        C  0.42950090  0.94176095  0.42978707     0.95700
C478        C  0.43037773  0.55918075  0.42848151     0.95500
N479        N  0.46215802  0.53014543  0.06033625    -0.06700
N480        N  0.45683035  0.54856346  0.08123090    -0.59200
N481        N  0.43922995  0.97198103  0.03850774    -0.04800
N482        N  0.41797091  0.95371112  0.04408513    -0.60400
N483        N  0.46192965  0.97219655  0.06113297    -0.06700
N484        N  0.45663051  0.95411879  0.08257701    -0.59400
N485        N  0.43946002  0.53002004  0.03770036    -0.04400
N486        N  0.41822081  0.54836658  0.04269046    -0.60500
Mn487      Mn  0.43847143  0.00075539  0.99981377     1.18400
C488        C  0.42945289  0.55978263  0.06982750     0.97800
C489        C  0.42923916  0.94273995  0.07157547     0.98500
N490        N  0.03966018  0.52916284  0.43894075    -0.06700
N491        N  0.04521042  0.54740992  0.41774876    -0.63000
N492        N  0.06190172  0.97118078  0.46224604    -0.05500
N493        N  0.08312685  0.95283644  0.45721035    -0.63700
N494        N  0.03926052  0.97114454  0.43955145    -0.06200
N495        N  0.04458052  0.95275937  0.41860616    -0.63300
N496        N  0.06227410  0.52912807  0.46165565    -0.05100
N497        N  0.08367607  0.54732331  0.45643821    -0.64000
Mn498      Mn  0.00093071  0.50027447  0.43809666     1.10700
C499        C  0.07265660  0.55856872  0.42907017     0.99000
C500        C  0.07192012  0.94149207  0.43001576     0.99100
N501        N  0.03876920  0.97186271  0.06127498    -0.06200
N502        N  0.04369860  0.95359062  0.08255355    -0.61600
N503        N  0.06201724  0.52964592  0.03802831    -0.05500
N504        N  0.08341129  0.54787187  0.04309364    -0.58300
N505        N  0.03927452  0.52985481  0.06061190    -0.06800
N506        N  0.04476968  0.54817856  0.08160262    -0.61200
N507        N  0.06168282  0.97167375  0.03886239    -0.05800
N508        N  0.08279359  0.95333444  0.04449230    -0.58300
Mn509      Mn  0.00052819  0.50104147  0.06180932     1.20200
Mn510      Mn  0.06295420  0.50038715  0.00019571     1.10100
Cl511      Cl  0.00071352  0.50061413  0.99997167    -0.86300
C512        C  0.07116295  0.94220674  0.07171201     0.96000
C513        C  0.07226639  0.55927175  0.07026570     0.95800
N514        N  0.28902670  0.77952480  0.18901019    -0.06500
N515        N  0.29407155  0.79777372  0.16774217    -0.58600
N516        N  0.31217254  0.72172979  0.21199021    -0.06100
N517        N  0.33367212  0.70360725  0.20675042    -0.60700
N518        N  0.28945807  0.72157791  0.18937069    -0.05700
N519        N  0.29502940  0.70336507  0.16824444    -0.58600
N520        N  0.31176227  0.77976650  0.21160050    -0.05400
N521        N  0.33278370  0.79822596  0.20618032    -0.61100
C522        C  0.32134003  0.80928566  0.17882280     0.95700
C523        C  0.32257707  0.69229932  0.17948171     0.95500
N524        N  0.28916602  0.72193490  0.31113362    -0.06700
N525        N  0.29446413  0.70378258  0.33247947    -0.59200
N526        N  0.31162785  0.77994240  0.28811996    -0.04800
N527        N  0.33282449  0.79829327  0.29322953    -0.60400
N528        N  0.28899932  0.77986960  0.31082807    -0.06700
N529        N  0.29441321  0.79811726  0.33196419    -0.59400
N530        N  0.31199148  0.72189777  0.28862066    -0.04400
N531        N  0.33331984  0.70367979  0.29418143    -0.60500
Mn532      Mn  0.31290346  0.75083389  0.25008994     1.18400
C533        C  0.32197579  0.69254379  0.32153029     0.97800
C534        C  0.32171488  0.80947015  0.32056440     0.98500
N535        N  0.21232547  0.72134024  0.18921196    -0.06700
N536        N  0.20690776  0.70311292  0.16805534    -0.63000
N537        N  0.18925069  0.77928038  0.21130193    -0.05500
N538        N  0.16780456  0.79738596  0.20562337    -0.63700
N539        N  0.21215894  0.77929929  0.18888195    -0.06200
N540        N  0.20689598  0.79747485  0.16755759    -0.63300
N541        N  0.18962246  0.72133498  0.21183872    -0.05100
N542        N  0.16833800  0.70306205  0.20663879    -0.64000
Mn543      Mn  0.25075446  0.75041339  0.18816147     1.10700
C544        C  0.17950132  0.69185379  0.17934538     0.99000
C545        C  0.17923854  0.80858816  0.17836589     0.99100
N546        N  0.21185495  0.77963833  0.31062602    -0.06200
N547        N  0.20627965  0.79785330  0.33174868    -0.61600
N548        N  0.18947868  0.72159308  0.28824701    -0.05500
N549        N  0.16822623  0.70329315  0.29344951    -0.58300
N550        N  0.21211319  0.72163611  0.31094342    -0.06800
N551        N  0.20672445  0.70333500  0.33210449    -0.61200
N552        N  0.18917549  0.77951871  0.28796712    -0.05800
N553        N  0.16767449  0.79763655  0.29320394    -0.58300
Mn554      Mn  0.25053420  0.75077401  0.31188484     1.20200
Mn555      Mn  0.18841068  0.75044644  0.24984870     1.10100
Cl556      Cl  0.25065740  0.75061488  0.25000516    -0.86300
C557        C  0.17874900  0.80892979  0.32048581     0.96000
C558        C  0.17935760  0.69206048  0.32078070     0.95800
C559        C  0.10129213  0.60801863  0.12247288     0.20000
C560        C  0.10201738  0.62333076  0.15020379    -0.39900
C561        C  0.12749100  0.64099470  0.15142864     0.19000
C562        C  0.15049596  0.64321880  0.12692052     0.21600
C563        C  0.14976612  0.62790655  0.09917683    -0.40400
C564        C  0.12429271  0.61022868  0.09795786     0.20400
N565        N  0.07966964  0.58972724  0.11558812    -0.33700
C566        C  0.08903046  0.58021384  0.08653271    -0.11200
C567        C  0.11674319  0.59248724  0.07473363    -0.30000
N568        N  0.17213700  0.66149498  0.13385658    -0.46600
C569        C  0.16277123  0.67096019  0.16294266    -0.05900
C570        C  0.13504816  0.65868572  0.17469441    -0.23300
H571        H  0.08408110  0.62161485  0.16940118     0.18500
H572        H  0.16771242  0.62961387  0.07998770     0.17300
H573        H  0.12966765  0.58883304  0.05229765     0.13600
H574        H  0.12212415  0.66230230  0.19714114     0.13500
H575        H  0.05991101  0.58395752  0.12985049     0.31600
H576        H  0.19191336  0.66727367  0.11962503     0.34400
C577        C  0.10087546  0.60823376  0.37763908     0.20000
C578        C  0.10065516  0.62454648  0.35078460    -0.39900
C579        C  0.12679909  0.64159065  0.34901484     0.19000
C580        C  0.15128095  0.64233540  0.37221896     0.21600
C581        C  0.15150228  0.62601916  0.39907825    -0.40400
C582        C  0.12535453  0.60897041  0.40084718     0.20400
N583        N  0.07886286  0.59026780  0.38481941    -0.33700
C584        C  0.08943483  0.57952876  0.41278291    -0.11200
C585        C  0.11832595  0.59065765  0.42355999    -0.30000
N586        N  0.17327288  0.66032176  0.36503563    -0.46600
C587        C  0.16267342  0.67105661  0.33707523    -0.05900
C588        C  0.13379689  0.65990678  0.32630780    -0.23300
H589        H  0.08154837  0.62400804  0.33262134     0.18500
H590        H  0.17060302  0.62656328  0.41724732     0.17300
H591        H  0.13233581  0.58590154  0.44501106     0.13600
H592        H  0.11976222  0.66466312  0.30487280     0.13500
H593        H  0.05802705  0.58554309  0.37149153     0.31600
H594        H  0.19410027  0.66506865  0.37836306     0.34400
C595        C  0.12662750  0.85721642  0.14896484     0.20000
C596        C  0.09863017  0.87247096  0.14784830    -0.39900
C597        C  0.09800202  0.89056956  0.12296964     0.19000
C598        C  0.12328573  0.89320895  0.10086029     0.21600
C599        C  0.15125748  0.87794453  0.10195805    -0.40400
C600        C  0.15189501  0.85986616  0.12684033     0.20400
N601        N  0.13320461  0.83868288  0.17028566    -0.33700
C602        C  0.16282665  0.82949026  0.16159169    -0.11200
C603        C  0.17526329  0.84217184  0.13461031    -0.30000
N604        N  0.11683092  0.91182592  0.07964198    -0.46600
C605        C  0.08727925  0.92111570  0.08837379    -0.05900
C606        C  0.07473572  0.90838473  0.11527896    -0.23300
H607        H  0.07885041  0.87044040  0.16510937     0.18500
H608        H  0.17106663  0.88000814  0.08473603     0.17300
H609        H  0.19827618  0.83887700  0.12237090     0.13600
H610        H  0.05176680  0.91176312  0.12756126     0.13500
H611        H  0.11844005  0.83260361  0.18946143     0.31400
H612        H  0.13167000  0.91793293  0.06053709     0.34400
C613        C  0.35100183  0.64324262  0.12738237     0.20000
C614        C  0.35087465  0.62728333  0.10023830    -0.39900
C615        C  0.37705592  0.61028880  0.09822159     0.19000
C616        C  0.40148382  0.60928679  0.12146483     0.21600
C617        C  0.40163174  0.62526697  0.14858702    -0.40400
C618        C  0.37544137  0.64225056  0.15061382     0.20400
N619        N  0.32893533  0.66107594  0.13484060    -0.33700
C620        C  0.33942997  0.67149253  0.16299478    -0.11200
C621        C  0.36833089  0.66026569  0.17362787    -0.30000
N622        N  0.42342308  0.59132825  0.11413545    -0.46600
C623        C  0.41285185  0.58083061  0.08606080    -0.05900
C624        C  0.38404816  0.59215243  0.07532830    -0.23300
H625        H  0.33177762  0.62801408  0.08207343     0.18500
H626        H  0.42068499  0.62449345  0.16679416     0.17300
H627        H  0.38230953  0.66478084  0.19516142     0.13600
H628        H  0.36999692  0.58756415  0.05386711     0.13500
H629        H  0.30812402  0.66594613  0.12154027     0.31600
H630        H  0.44415789  0.58638813  0.12751105     0.34400
C631        C  0.40012919  0.89326830  0.37734175     0.20000
C632        C  0.39889180  0.87834729  0.34926951    -0.39900
C633        C  0.37362108  0.86049367  0.34825593     0.19000
C634        C  0.35127748  0.85773587  0.37327402     0.21600
C635        C  0.35252757  0.87264910  0.40135847    -0.40400
C636        C  0.37779014  0.89051588  0.40236496     0.20400
N637        N  0.42162405  0.91168620  0.38409214    -0.33700
C638        C  0.41282007  0.92075065  0.41355948    -0.11200
C639        C  0.38562405  0.90803901  0.42577063    -0.30000
N640        N  0.32971540  0.83937298  0.36646053    -0.46600
C641        C  0.33847883  0.83036787  0.33694930    -0.05900
C642        C  0.36572290  0.84304533  0.32479036    -0.23300
H643        H  0.41630000  0.88049080  0.32966629     0.18500
H644        H  0.33509563  0.87052639  0.42094412     0.17300
H645        H  0.37317003  0.91130620  0.44856600     0.13600
H646        H  0.37814216  0.83982560  0.30196467     0.13500
H647        H  0.44089142  0.91786414  0.36945271     0.31600
H648        H  0.31041018  0.83321498  0.38106379     0.34400
C649        C  0.37934441  0.60931309  0.40055656     0.20000
C650        C  0.35254035  0.62580379  0.40080394    -0.39900
C651        C  0.35063900  0.64259249  0.37452026     0.19000
C652        C  0.37369584  0.64296126  0.34990208     0.21600
C653        C  0.40053424  0.62649343  0.34968145    -0.40400
C654        C  0.40241877  0.60968262  0.37595404     0.20400
N655        N  0.38649858  0.59140536  0.42256269    -0.33700
C656        C  0.41430439  0.58032157  0.41185686    -0.11200
C657        C  0.42502711  0.59119937  0.38290770    -0.30000
N658        N  0.36635828  0.66072300  0.32774829    -0.46600
C659        C  0.33843729  0.67168597  0.33837562    -0.05900
C660        C  0.32786151  0.66090919  0.36743563    -0.23300
H661        H  0.33445767  0.62553261  0.41998576     0.18500
H662        H  0.41856181  0.62671185  0.33044805     0.17300
H663        H  0.44630662  0.58610917  0.36874866     0.13600
H664        H  0.30649035  0.66589513  0.38152064     0.13500
H665        H  0.37320552  0.58689593  0.44344020     0.31600
H666        H  0.37954580  0.66516366  0.30678123     0.34400
C667        C  0.15056091  0.85824773  0.37227720     0.20000
C668        C  0.15095338  0.87448018  0.39914152    -0.39900
C669        C  0.12454376  0.89123966  0.40137679     0.19000
C670        C  0.09966427  0.89178816  0.37858608     0.21600
C671        C  0.09925410  0.87553606  0.35173614    -0.40400
C672        C  0.12567440  0.85878185  0.34949322     0.20400
N673        N  0.17275173  0.84053506  0.36471785    -0.33700
C674        C  0.16189595  0.82974441  0.33693900    -0.11200
C675        C  0.13263721  0.84060519  0.32665022    -0.30000
N676        N  0.07758610  0.90961407  0.38604485    -0.46600
C677        C  0.08852184  0.92046411  0.41375754    -0.05900
C678        C  0.11769407  0.90951245  0.42411964    -0.23300
H679        H  0.17039983  0.87410966  0.41695421     0.18500
H680        H  0.07984425  0.87594388  0.33388537     0.17300
H681        H  0.11832556  0.83573878  0.30546269     0.13600
H682        H  0.13207684  0.91443353  0.44523857     0.13500
H683        H  0.19388071  0.83598791  0.37770873     0.31600
H684        H  0.05651906  0.91423166  0.37299569     0.34400
C685        C  0.37225928  0.85946975  0.15080228     0.20000
C686        C  0.39882648  0.87619256  0.15116187    -0.39900
C687        C  0.40073849  0.89286500  0.12475442     0.19000
C688        C  0.37792334  0.89290072  0.09990934     0.21600
C689        C  0.35133873  0.87619231  0.09956474    -0.40400
C690        C  0.34943369  0.85951170  0.12596669     0.20400
N691        N  0.36507385  0.84166737  0.17294774    -0.33700
C692        C  0.33748250  0.83034504  0.16209794    -0.11200
C693        C  0.32695589  0.84093808  0.13290948    -0.30000
N694        N  0.38521504  0.91060974  0.07767194    -0.46600
C695        C  0.41287046  0.92186879  0.08847036    -0.05900
C696        C  0.42331431  0.91134537  0.11772855    -0.23300
H697        H  0.41671018  0.87619190  0.17052919     0.18500
H698        H  0.33349047  0.87616015  0.08016548     0.17300
H699        H  0.30584913  0.83563597  0.11862046     0.13600
H700        H  0.44448111  0.91658897  0.13196602     0.13500
H701        H  0.37817252  0.83741022  0.19403096     0.31600
H702        H  0.37218123  0.91481439  0.05653197     0.34400
N703        N  0.46221355  0.97140547  0.93927607    -0.06500
N704        N  0.45682845  0.95302936  0.91832733    -0.58600
N705        N  0.43977319  0.52957546  0.96117924    -0.06100
N706        N  0.41880486  0.54805441  0.95573505    -0.60700
N707        N  0.46262439  0.52937930  0.93869678    -0.05700
N708        N  0.45769375  0.54768580  0.91747272    -0.58600
N709        N  0.43955366  0.97148709  0.96195227    -0.05400
N710        N  0.41834807  0.95311024  0.95699510    -0.61100
C711        C  0.42950129  0.94176165  0.92978775     0.95700
C712        C  0.43037792  0.55917990  0.92848111     0.95500
N713        N  0.46215785  0.53014605  0.56033702    -0.06700
N714        N  0.45683008  0.54856390  0.58123187    -0.59200
N715        N  0.43922947  0.97198021  0.53850733    -0.04800
N716        N  0.41797029  0.95371042  0.54408484    -0.60400
N717        N  0.46192921  0.97219567  0.56113254    -0.06700
N718        N  0.45662997  0.95411799  0.58257664    -0.59400
N719        N  0.43945990  0.53002077  0.53770108    -0.04400
N720        N  0.41822061  0.54836724  0.54269136    -0.60500
Mn721      Mn  0.43847123  0.00075455  0.49981331     1.18400
C722        C  0.42945260  0.55978309  0.56982856     0.97800
C723        C  0.42923850  0.94273927  0.57157522     0.98500
N724        N  0.03966051  0.52916182  0.93894038    -0.06700
N725        N  0.04521081  0.54740905  0.91774860    -0.63000
N726        N  0.06190215  0.97118218  0.96224640    -0.05500
N727        N  0.08312750  0.95283798  0.95721068    -0.63700
N728        N  0.03926084  0.97114570  0.93955191    -0.06200
N729        N  0.04458102  0.95276055  0.91860664    -0.63300
N730        N  0.06227445  0.52912682  0.96165526    -0.05100
N731        N  0.08367649  0.54732204  0.95643801    -0.64000
Mn732      Mn  0.00093090  0.50027358  0.93809614     1.10700
C733        C  0.07265706  0.55856767  0.92907011     0.99000
C734        C  0.07192082  0.94149349  0.93001619     0.99100
N735        N  0.03876875  0.97186145  0.56127468    -0.06200
N736        N  0.04369801  0.95358941  0.58255332    -0.61600
N737        N  0.06201702  0.52964714  0.53802870    -0.05500
N738        N  0.08341081  0.54787327  0.54309398    -0.58300
N739        N  0.03927441  0.52985576  0.56061240    -0.06800
N740        N  0.04476939  0.54817952  0.58160316    -0.61200
N741        N  0.06168236  0.97167231  0.53886206    -0.05800
N742        N  0.08279294  0.95333290  0.54449202    -0.58300
Mn743      Mn  0.00052825  0.50104222  0.56180984     1.20200
Mn744      Mn  0.06295417  0.50038842  0.50019609     1.10100
Cl745      Cl  0.00071347  0.50061506  0.49997223    -0.86300
C746        C  0.07116223  0.94220533  0.57171180     0.96000
C747        C  0.07226589  0.55927301  0.57026610     0.95800
N748        N  0.28902646  0.77952480  0.68901206    -0.06500
N749        N  0.29407115  0.79777367  0.66774393    -0.58600
N750        N  0.31217244  0.72172980  0.71199219    -0.06100
N751        N  0.33367201  0.70360724  0.70675239    -0.60700
N752        N  0.28945788  0.72157788  0.68937279    -0.05700
N753        N  0.29502908  0.70336496  0.66824659    -0.58600
N754        N  0.31176216  0.77976654  0.71160221    -0.05400
N755        N  0.33278358  0.79822599  0.70618180    -0.61100
C756        C  0.32133972  0.80928562  0.67882429     0.95700
C757        C  0.32257681  0.69229924  0.67948379     0.95500
N758        N  0.28916630  0.72193506  0.81113563    -0.06700
N759        N  0.29446450  0.70378268  0.83248136    -0.59200
N760        N  0.31162803  0.77994255  0.78812172    -0.04800
N761        N  0.33282475  0.79829340  0.79323118    -0.60400
N762        N  0.28899963  0.77986979  0.81082992    -0.06700
N763        N  0.29441364  0.79811745  0.83196601    -0.59400
N764        N  0.31199170  0.72189800  0.78862260    -0.04400
N765        N  0.33332012  0.70368004  0.79418323    -0.60500
Mn766      Mn  0.31290350  0.75083400  0.75009180     1.18400
C767        C  0.32197617  0.69254397  0.82153207     0.97800
C768        C  0.32171532  0.80947029  0.82056610     0.98500
N769        N  0.21232537  0.72134030  0.68921430    -0.06700
N770        N  0.20690751  0.70311310  0.66805757    -0.63000
N771        N  0.18925058  0.77928047  0.71130405    -0.05500
N772        N  0.16780432  0.79738594  0.70562530    -0.63700
N773        N  0.21215873  0.77929924  0.68888401    -0.06200
N774        N  0.20689559  0.79747457  0.66755935    -0.63300
N775        N  0.18962235  0.72133508  0.71184108    -0.05100
N776        N  0.16833777  0.70306225  0.70664102    -0.64000
Mn777      Mn  0.25075428  0.75041339  0.68816362     1.10700
C778        C  0.17950101  0.69185406  0.67934753     0.99000
C779        C  0.17923815  0.80858792  0.67836762     0.99100
N780        N  0.21185532  0.77963863  0.81062811    -0.06200
N781        N  0.20628033  0.79785382  0.83175059    -0.61600
N782        N  0.18947880  0.72159337  0.78824924    -0.05500
N783        N  0.16822646  0.70329332  0.79345153    -0.58300
N784        N  0.21211334  0.72163632  0.81094559    -0.06800
N785        N  0.20672474  0.70333504  0.83210645    -0.61200
N786        N  0.18917580  0.77951899  0.78796929    -0.05800
N787        N  0.16767502  0.79763704  0.79320600    -0.58300
Mn788      Mn  0.25053447  0.75077421  0.81188691     1.20200
Mn789      Mn  0.18841071  0.75044664  0.74985095     1.10100
Cl790      Cl  0.25065744  0.75061496  0.75000729    -0.86300
C791        C  0.17874973  0.80893040  0.82048768     0.96000
C792        C  0.17935793  0.69206049  0.82078257     0.95800
C793        C  0.10129117  0.60801989  0.62247356     0.20000
C794        C  0.10201635  0.62333182  0.65020468    -0.39900
C795        C  0.12749008  0.64099566  0.65142982     0.19000
C796        C  0.15049517  0.64321981  0.62692183     0.21600
C797        C  0.14976546  0.62790774  0.59917796    -0.40400
C798        C  0.12429191  0.61023000  0.59795868     0.20400
N799        N  0.07966871  0.58972855  0.61558856    -0.33700
C800        C  0.08902969  0.58021521  0.58653319    -0.11200
C801        C  0.11674249  0.59248865  0.57473430    -0.30000
N802        N  0.17213633  0.66149581  0.63385823    -0.46600
C803        C  0.16277058  0.67096082  0.66294440    -0.05900
C804        C  0.13504729  0.65868648  0.67469583    -0.23300
H805        H  0.08408002  0.62161583  0.66940195     0.18500
H806        H  0.16771187  0.62961508  0.57998902     0.17300
H807        H  0.12966714  0.58883446  0.55229842     0.13600
H808        H  0.12212324  0.66230294  0.69714260     0.13500
H809        H  0.05991005  0.58395878  0.62985083     0.31600
H810        H  0.19191284  0.66727446  0.61962683     0.34400
C811        C  0.10087610  0.60823301  0.87763958     0.20000
C812        C  0.10065593  0.62454586  0.85078523    -0.39900
C813        C  0.12679976  0.64159013  0.84901578     0.19000
C814        C  0.15128153  0.64233478  0.87221998     0.21600
C815        C  0.15150279  0.62601839  0.89907912    -0.40400
C816        C  0.12535505  0.60896962  0.90084781     0.20400
N817        N  0.07886354  0.59026697  0.88481963    -0.33700
C818        C  0.08943543  0.57952777  0.91278306    -0.11200
C819        C  0.11832648  0.59065666  0.92356038    -0.30000
N820        N  0.17327341  0.66032129  0.86503702    -0.46600
C821        C  0.16267392  0.67105636  0.83707675    -0.05900
C822        C  0.13379750  0.65990652  0.82630913    -0.23300
H823        H  0.08154920  0.62400747  0.83262183     0.18500
H824        H  0.17060348  0.62656241  0.91724824     0.17300
H825        H  0.13233628  0.58590048  0.94501143     0.13600
H826        H  0.11976276  0.66466308  0.80487414     0.13500
H827        H  0.05802777  0.58554232  0.87149165     0.31600
H828        H  0.19410066  0.66506814  0.87836461     0.34400
C829        C  0.12662708  0.85721604  0.64896623     0.20000
C830        C  0.09863010  0.87247098  0.64784999    -0.39900
C831        C  0.09800150  0.89056889  0.62297051     0.19000
C832        C  0.12328451  0.89320731  0.60086016     0.21600
C833        C  0.15125590  0.87794250  0.60195757    -0.40400
C834        C  0.15189385  0.85986482  0.62684069     0.20400
N835        N  0.13320452  0.83868298  0.67028764    -0.33700
C836        C  0.16282606  0.82948973  0.66159302    -0.11200
C837        C  0.17526196  0.84217040  0.63461062    -0.30000
N838        N  0.11682953  0.91182387  0.57964134    -0.46600
C839        C  0.08727843  0.92111437  0.58837378    -0.05900
C840        C  0.07473541  0.90838425  0.61527988    -0.23300
H841        H  0.07885086  0.87044119  0.66511187     0.18500
H842        H  0.17106444  0.88000537  0.58473481     0.17300
H843        H  0.19827435  0.83887492  0.62237046     0.13600
H844        H  0.05176707  0.91176335  0.62756279     0.13500
H845        H  0.11844055  0.83260445  0.68946425     0.31400
H846        H  0.13166816  0.91793016  0.56053569     0.34400
C847        C  0.35100125  0.64324245  0.62738445     0.20000
C848        C  0.35087399  0.62728326  0.60024025    -0.39900
C849        C  0.37705534  0.61028879  0.59822341     0.19000
C850        C  0.40148329  0.60928673  0.62146657     0.21600
C851        C  0.40163121  0.62526679  0.64858888    -0.40400
C852        C  0.37544079  0.64225032  0.65061587     0.20400
N853        N  0.32893488  0.66107585  0.63484269    -0.33700
C854        C  0.33942959  0.67149241  0.66299687    -0.11200
C855        C  0.36833047  0.66026549  0.67362993    -0.30000
N856        N  0.42342267  0.59132832  0.61413698    -0.46600
C857        C  0.41285142  0.58083084  0.58606218    -0.05900
C858        C  0.38404766  0.59215262  0.57532987    -0.23300
H859        H  0.33177705  0.62801409  0.58207539     0.18500
H860        H  0.42068459  0.62449329  0.66679596     0.17300
H861        H  0.38230917  0.66478068  0.69516340     0.13600
H862        H  0.36999647  0.58756449  0.55386859     0.13500
H863        H  0.30812361  0.66594614  0.62154232     0.31600
H864        H  0.44415753  0.58638820  0.62751248     0.34400
C865        C  0.40012952  0.89326879  0.87734269     0.20000
C866        C  0.39889178  0.87834789  0.84927036    -0.39900
C867        C  0.37362138  0.86049403  0.84825718     0.19000
C868        C  0.35127840  0.85773582  0.87327573     0.21600
C869        C  0.35252886  0.87264892  0.90136028    -0.40400
C870        C  0.37779111  0.89051598  0.90236636     0.20400
N871        N  0.42162411  0.91168699  0.88409268    -0.33700
C872        C  0.41282055  0.92075122  0.91356030    -0.11200
C873        C  0.38562509  0.90803914  0.92577197    -0.30000
N874        N  0.32971645  0.83937281  0.86646248    -0.46600
C875        C  0.33847933  0.83036800  0.83695095    -0.05900
C876        C  0.36572286  0.84304583  0.82479157    -0.23300
H877        H  0.41629944  0.88049175  0.82966664     0.18500
H878        H  0.33509734  0.87052595  0.92094631     0.17300
H879        H  0.37317151  0.91130603  0.94856759     0.13600
H880        H  0.37814160  0.83982644  0.80196542     0.13500
H881        H  0.44089097  0.91786526  0.86945285     0.31600
H882        H  0.31041163  0.83321455  0.88106608     0.34400
C883        C  0.37934432  0.60931214  0.90055654     0.20000
C884        C  0.35253989  0.62580248  0.90080381    -0.39900
C885        C  0.35063906  0.64259188  0.87452088     0.19000
C886        C  0.37369672  0.64296167  0.84990348     0.21600
C887        C  0.40053551  0.62649419  0.84968294    -0.40400
C888        C  0.40241949  0.60968262  0.87595478     0.20400
N889        N  0.38649814  0.59140394  0.92256220    -0.33700
C890        C  0.41430462  0.58032083  0.91185674    -0.11200
C891        C  0.42502804  0.59119950  0.88290836    -0.30000
N892        N  0.36635937  0.66072381  0.82775024    -0.46600
C893        C  0.33843771  0.67168605  0.83837708    -0.05900
C894        C  0.32786122  0.66090836  0.86743628    -0.23300
H895        H  0.33445651  0.62553055  0.91998496     0.18500
H896        H  0.41856369  0.62671339  0.83045011     0.17300
H897        H  0.44630819  0.58611003  0.86874988     0.13600
H898        H  0.30648942  0.66589351  0.88152067     0.13500
H899        H  0.37320453  0.58689382  0.94343904     0.31600
H900        H  0.37954745  0.66516519  0.80678373     0.34400
C901        C  0.15056208  0.85824914  0.87227825     0.20000
C902        C  0.15095441  0.87448165  0.89914251    -0.39900
C903        C  0.12454488  0.89124124  0.90137752     0.19000
C904        C  0.09966562  0.89178978  0.87858655     0.21600
C905        C  0.09925563  0.87553769  0.85173663    -0.40400
C906        C  0.12567580  0.85878336  0.84949401     0.20400
N907        N  0.17275269  0.84053619  0.86471931    -0.33700
C908        C  0.16189698  0.82974543  0.83694048    -0.11200
C909        C  0.13263855  0.84060647  0.82665128    -0.30000
N910        N  0.07758734  0.90961565  0.88604519    -0.46600
C911        C  0.08852277  0.92046562  0.91375802    -0.05900
C912        C  0.11769494  0.90951397  0.92412035    -0.23300
H913        H  0.17040064  0.87411105  0.91695545     0.18500
H914        H  0.07984588  0.87594551  0.83388575     0.17300
H915        H  0.11832695  0.83574002  0.80546373     0.13600
H916        H  0.13207753  0.91443499  0.94523946     0.13500
H917        H  0.19388141  0.83598889  0.87771047     0.31600
H918        H  0.05652043  0.91423322  0.87299584     0.34400
C919        C  0.37225880  0.85946960  0.65080305     0.20000
C920        C  0.39882592  0.87619248  0.65116240    -0.39900
C921        C  0.40073783  0.89286474  0.62475474     0.19000
C922        C  0.37792262  0.89290028  0.59990974     0.21600
C923        C  0.35133811  0.87619181  0.59956539    -0.40400
C924        C  0.34943315  0.85951134  0.62596751     0.20400
N925        N  0.36507350  0.84166734  0.67294874    -0.33700
C926        C  0.33748211  0.83034491  0.66209916    -0.11200
C927        C  0.32695538  0.84093776  0.63291060    -0.30000
N928        N  0.38521428  0.91060919  0.57767215    -0.46600
C929        C  0.41286973  0.92186828  0.58847035    -0.05900
C930        C  0.42331363  0.91134504  0.61772862    -0.23300
H931        H  0.41670967  0.87619203  0.67052966     0.18500
H932        H  0.33348974  0.87615950  0.58016612     0.17300
H933        H  0.30584861  0.83563551  0.61862172     0.13600
H934        H  0.44448048  0.91658871  0.63196599     0.13500
H935        H  0.37817224  0.83741033  0.69403195     0.31600
H936        H  0.37218042  0.91481375  0.55653213     0.34400
N937        N  0.96221357  0.47140547  0.43927602    -0.06500
N938        N  0.95682852  0.45302934  0.41832731    -0.58600
N939        N  0.93977319  0.02957559  0.46117945    -0.06100
N940        N  0.91880506  0.04805468  0.45573531    -0.60700
N941        N  0.96262431  0.02937929  0.43869691    -0.05700
N942        N  0.95769378  0.04768578  0.41747283    -0.58600
N943        N  0.93955367  0.47148711  0.46195220    -0.05400
N944        N  0.91834810  0.45311024  0.45699506    -0.61100
C945        C  0.92950135  0.44176162  0.42978774     0.95700
C946        C  0.93037811  0.05918007  0.42848129     0.95500
N947        N  0.96215801  0.03014620  0.06033694    -0.06700
N948        N  0.95683042  0.04856416  0.08123167    -0.59200
N949        N  0.93922983  0.47198012  0.03850723    -0.04800
N950        N  0.91797079  0.45371026  0.04408475    -0.60400
N951        N  0.96192948  0.47219577  0.06113252    -0.06700
N952        N  0.95663031  0.45411814  0.08257670    -0.59400
N953        N  0.93946003  0.03002091  0.03770103    -0.04400
N954        N  0.91822087  0.04836747  0.04269122    -0.60500
Mn955      Mn  0.93847145  0.50075445  0.99981316     1.18400
C956        C  0.92945301  0.05978341  0.06982833     0.97800
C957        C  0.92923897  0.44273924  0.07157526     0.98500
N958        N  0.53966041  0.02916169  0.43894030    -0.06700
N959        N  0.54521098  0.04740874  0.41774834    -0.63000
N960        N  0.56190212  0.47118211  0.46224636    -0.05500
N961        N  0.58312748  0.45283792  0.45721063    -0.63700
N962        N  0.53926082  0.47114567  0.43955187    -0.06200
N963        N  0.54458103  0.45276054  0.41860656    -0.63300
N964        N  0.56227428  0.02912674  0.46165528    -0.05100
N965        N  0.58367650  0.04732182  0.45643789    -0.64000
Mn966      Mn  0.50093065  0.00027350  0.43809621     1.10700
C967        C  0.57265728  0.05856732  0.42906982     0.99000
C968        C  0.57192080  0.44149346  0.43001611     0.99100
N969        N  0.53876890  0.47186164  0.06127477    -0.06200
N970        N  0.54369825  0.45358972  0.08255356    -0.61600
N971        N  0.56201700  0.02964726  0.03802874    -0.05500
N972        N  0.58341081  0.04787339  0.04309398    -0.58300
N973        N  0.53927444  0.02985587  0.06061248    -0.06800
N974        N  0.54476948  0.04817961  0.08160326    -0.61200
N975        N  0.56168236  0.47167237  0.03886203    -0.05800
N976        N  0.58279296  0.45333295  0.04449205    -0.58300
Mn977      Mn  0.50052829  0.00104235  0.06180983     1.20200
Mn978      Mn  0.56295417  0.00038853  0.00019612     1.10100
Cl979      Cl  0.50071351  0.00061510  0.99997218    -0.86300
C980        C  0.57116239  0.44220555  0.07171200     0.96000
C981        C  0.57226593  0.05927310  0.07026617     0.95800
N982        N  0.78902660  0.27952496  0.18901214    -0.06500
N983        N  0.79407144  0.29777380  0.16774401    -0.58600
N984        N  0.81217262  0.22172995  0.21199207    -0.06100
N985        N  0.83367225  0.20360747  0.20675213    -0.60700
N986        N  0.78945805  0.22157807  0.18937264    -0.05700
N987        N  0.79502938  0.20336530  0.16824629    -0.58600
N988        N  0.81176228  0.27976669  0.21160234    -0.05400
N989        N  0.83278374  0.29822610  0.20618199    -0.61100
C990        C  0.82134000  0.30928573  0.17882444     0.95700
C991        C  0.82257714  0.19229960  0.17948339     0.95500
N992        N  0.78916645  0.22193517  0.31113553    -0.06700
N993        N  0.79446481  0.20378293  0.33248143    -0.59200
N994        N  0.81162801  0.27994262  0.28812175    -0.04800
N995        N  0.83282465  0.29829353  0.29323122    -0.60400
N996        N  0.78899962  0.27986979  0.31082997    -0.06700
N997        N  0.79441361  0.29811741  0.33196612    -0.59400
N998        N  0.81199182  0.22189806  0.28862247    -0.04400
N999        N  0.83332031  0.20368020  0.29418318    -0.60500
Mn1000     Mn  0.81290363  0.25083411  0.25009177     1.18400
C1001       C  0.82197651  0.19254424  0.32153215     0.97800
C1002       C  0.82171519  0.30947036  0.32056619     0.98500
N1003       N  0.71232545  0.22134035  0.18921422    -0.06700
N1004       N  0.70690768  0.20311312  0.16805754    -0.63000
N1005       N  0.68925054  0.27928046  0.21130410    -0.05500
N1006       N  0.66780434  0.29738598  0.20562554    -0.63700
N1007       N  0.71215870  0.27929930  0.18888405    -0.06200
N1008       N  0.70689557  0.29747475  0.16755954    -0.63300
N1009       N  0.68962247  0.22133510  0.21184100    -0.05100
N1010       N  0.66833795  0.20306222  0.20664102    -0.64000
Mn1011     Mn  0.75075437  0.25041352  0.18816358     1.10700
C1012       C  0.67950121  0.19185401  0.17934755     0.99000
C1013       C  0.67923818  0.30858808  0.17836793     0.99100
N1014       N  0.71185523  0.27963853  0.31062820    -0.06200
N1015       N  0.70628009  0.29785365  0.33175072    -0.61600
N1016       N  0.68947898  0.22159323  0.28824920    -0.05500
N1017       N  0.66822672  0.20329312  0.29345145    -0.58300
N1018       N  0.71211353  0.22163619  0.31094556    -0.06800
N1019       N  0.70672500  0.20333486  0.33210637    -0.61200
N1020       N  0.68917566  0.27951884  0.28796938    -0.05800
N1021       N  0.66767473  0.29763674  0.29320618    -0.58300
Mn1022     Mn  0.75053453  0.25077419  0.31188689     1.20200
Mn1023     Mn  0.68841077  0.25044657  0.24985096     1.10100
Cl1024     Cl  0.75065756  0.25061505  0.25000725    -0.86300
C1025       C  0.67874937  0.30893009  0.32048791     0.96000
C1026       C  0.67935824  0.19206026  0.32078245     0.95800
C1027       C  0.60129125  0.10801989  0.12247362     0.20000
C1028       C  0.60201654  0.12333176  0.15020477    -0.39900
C1029       C  0.62749029  0.14099556  0.15142997     0.19000
C1030       C  0.65049536  0.14321972  0.12692196     0.21600
C1031       C  0.64976553  0.12790774  0.09917802    -0.40400
C1032       C  0.62429192  0.11023005  0.09795869     0.20400
N1033       N  0.57966879  0.08972856  0.11558863    -0.33700
C1034       C  0.58902974  0.08021527  0.08653319    -0.11200
C1035       C  0.61674249  0.09248875  0.07473428    -0.30000
N1036       N  0.67213654  0.16149570  0.13385834    -0.46600
C1037       C  0.66277081  0.17096074  0.16294450    -0.05900
C1038       C  0.63504754  0.15868639  0.17469598    -0.23300
H1039       H  0.58408016  0.12161574  0.16940208     0.18500
H1040       H  0.66771191  0.12961511  0.07998905     0.17300
H1041       H  0.62966715  0.08883458  0.05229841     0.13600
H1042       H  0.62212352  0.16230290  0.19714276     0.13500
H1043       H  0.55991016  0.08395875  0.12985091     0.31600
H1044       H  0.69191302  0.16727435  0.11962689     0.34400
C1045       C  0.60087655  0.10823249  0.37763909     0.20000
C1046       C  0.60065649  0.12454529  0.35078467    -0.39900
C1047       C  0.62680027  0.14158959  0.34901529     0.19000
C1048       C  0.65128190  0.14233437  0.37221964     0.21600
C1049       C  0.65150307  0.12601798  0.39907877    -0.40400
C1050       C  0.62535541  0.10896917  0.40084741     0.20400
N1051       N  0.57886398  0.09026646  0.38481916    -0.33700
C1052       C  0.58943574  0.07952735  0.41278268    -0.11200
C1053       C  0.61832674  0.09065628  0.42356007    -0.30000
N1054       N  0.67327365  0.16032098  0.36503683    -0.46600
C1055       C  0.66267432  0.17105599  0.33707648    -0.05900
C1056       C  0.63379809  0.15990599  0.32630859    -0.23300
H1057       H  0.58154987  0.12400681  0.33262116     0.18500
H1058       H  0.67060370  0.12656208  0.41724803     0.17300
H1059       H  0.63233641  0.08590019  0.44501124     0.13600
H1060       H  0.61976352  0.16466248  0.30487353     0.13500
H1061       H  0.55802827  0.08554178  0.37149111     0.31600
H1062       H  0.69410077  0.16506795  0.37836459     0.34400
C1063       C  0.62662721  0.35721631  0.14896670     0.20000
C1064       C  0.59863027  0.37247126  0.14785041    -0.39900
C1065       C  0.59800171  0.39056919  0.12297094     0.19000
C1066       C  0.62328470  0.39320753  0.10086058     0.21600
C1067       C  0.65125605  0.37794269  0.10195806    -0.40400
C1068       C  0.65189399  0.35986505  0.12684120     0.20400
N1069       N  0.63320460  0.33868322  0.17028809    -0.33700
C1070       C  0.66282613  0.32948996  0.16159348    -0.11200
C1071       C  0.67526211  0.34217063  0.13461111    -0.30000
N1072       N  0.61682968  0.41182401  0.07964162    -0.46600
C1073       C  0.58727860  0.42111456  0.08837403    -0.05900
C1074       C  0.57473562  0.40838454  0.11528022    -0.23300
H1075       H  0.57885099  0.37044147  0.16511229     0.18500
H1076       H  0.67106463  0.38000544  0.08473523     0.17300
H1077       H  0.69827444  0.33887512  0.12237099     0.13600
H1078       H  0.55176730  0.41176370  0.12756318     0.13500
H1079       H  0.61844058  0.33260469  0.18946469     0.31400
H1080       H  0.63166829  0.41793022  0.06053592     0.34400
C1081       C  0.85100211  0.14324328  0.12738355     0.20000
C1082       C  0.85087509  0.12728422  0.10023926    -0.39900
C1083       C  0.87705629  0.11028960  0.09822259     0.19000
C1084       C  0.90148402  0.10928736  0.12146599     0.21600
C1085       C  0.90163175  0.12526730  0.14858837    -0.40400
C1086       C  0.87544143  0.14225094  0.15061520     0.20400
N1087       N  0.82893564  0.16107662  0.13484185    -0.33700
C1088       C  0.83943009  0.17149291  0.16299628    -0.11200
C1089       C  0.86833086  0.16026589  0.17362943    -0.30000
N1090       N  0.92342332  0.09132878  0.11413660    -0.46600
C1091       C  0.91285209  0.08083136  0.08606175    -0.05900
C1092       C  0.88404855  0.09215334  0.07532917    -0.23300
H1093       H  0.83177824  0.12801516  0.08207424     0.18500
H1094       H  0.92068487  0.12449358  0.16679570     0.17300
H1095       H  0.88230937  0.16478083  0.19516313     0.13600
H1096       H  0.86999747  0.08756523  0.05386787     0.13500
H1097       H  0.80812449  0.16594702  0.12154138     0.31600
H1098       H  0.94415796  0.08638848  0.12751227     0.34400
C1099       C  0.90012973  0.39326862  0.37734288     0.20000
C1100       C  0.89889225  0.37834749  0.34927076    -0.39900
C1101       C  0.87362156  0.36049389  0.34825735     0.19000
C1102       C  0.85127807  0.35773613  0.37327556     0.21600
C1103       C  0.85252826  0.37264943  0.40135995    -0.40400
C1104       C  0.87779082  0.39051624  0.40236620     0.20400
N1105       N  0.92162455  0.41168660  0.38409302    -0.33700
C1106       C  0.91282062  0.42075118  0.41356037    -0.11200
C1107       C  0.88562473  0.40803948  0.42577177    -0.30000
N1108       N  0.82971591  0.33937328  0.36646222    -0.46600
C1109       C  0.83847919  0.33036813  0.33695095    -0.05900
C1110       C  0.86572318  0.34304556  0.32479182    -0.23300
H1111       H  0.91630039  0.38049099  0.32966738     0.18500
H1112       H  0.83509642  0.37052677  0.42094564     0.17300
H1113       H  0.87317084  0.41130668  0.44856711     0.13600
H1114       H  0.87814227  0.33982582  0.30196605     0.13500
H1115       H  0.94089185  0.41786450  0.36945349     0.31600
H1116       H  0.81041075  0.33321534  0.38106558     0.34400
C1117       C  0.87934522  0.10931296  0.40055719     0.20000
C1118       C  0.85254131  0.12580379  0.40080493    -0.39900
C1119       C  0.85064001  0.14259272  0.37452154     0.19000
C1120       C  0.87369676  0.14296166  0.34990330     0.21600
C1121       C  0.90053510  0.12649373  0.34968234    -0.40400
C1122       C  0.90241955  0.10968263  0.37595464     0.20400
N1123       N  0.88649922  0.09140492  0.42256296    -0.33700
C1124       C  0.91430495  0.08032111  0.41185692    -0.11200
C1125       C  0.92502775  0.09119919  0.38290795    -0.30000
N1126       N  0.86635913  0.16072351  0.32774976    -0.46600
C1127       C  0.83843814  0.17168641  0.33837727    -0.05900
C1128       C  0.82786243  0.16090943  0.36743717    -0.23300
H1129       H  0.83445859  0.12553248  0.41998672     0.18500
H1130       H  0.91856260  0.12671228  0.33044888     0.17300
H1131       H  0.94630723  0.08610908  0.36874881     0.13600
H1132       H  0.80649126  0.16589519  0.38152221     0.13500
H1133       H  0.87320608  0.08689535  0.44344036     0.31600
H1134       H  0.87954654  0.16516429  0.30678265     0.34400
C1135       C  0.65056177  0.35824887  0.37227835     0.20000
C1136       C  0.65095436  0.37448163  0.39914232    -0.39900
C1137       C  0.62454478  0.39124115  0.40137744     0.19000
C1138       C  0.59966518  0.39178937  0.37858684     0.21600
C1139       C  0.59925489  0.37553700  0.35173718    -0.40400
C1140       C  0.62567515  0.35878274  0.34949447     0.20400
N1141       N  0.67275242  0.34053601  0.36471931    -0.33700
C1142       C  0.66189646  0.32974496  0.33694080    -0.11200
C1143       C  0.63263773  0.34060569  0.32665191    -0.30000
N1144       N  0.57758691  0.40961520  0.38604555    -0.46600
C1145       C  0.58852268  0.42046552  0.41375801    -0.05900
C1146       C  0.61769507  0.40951407  0.42412008    -0.23300
H1147       H  0.67040088  0.37411125  0.41695503     0.18500
H1148       H  0.57984489  0.37594456  0.33388657     0.17300
H1149       H  0.61832592  0.33573898  0.30546460     0.13600
H1150       H  0.63207791  0.41443537  0.44523892     0.13500
H1151       H  0.69388145  0.33598897  0.37771022     0.31600
H1152       H  0.55651970  0.41423253  0.37299649     0.34400
C1153       C  0.87225929  0.35946963  0.15080322     0.20000
C1154       C  0.89882643  0.37619248  0.15116258    -0.39900
C1155       C  0.90073833  0.39286477  0.12475494     0.19000
C1156       C  0.87792317  0.39290029  0.09990989     0.21600
C1157       C  0.85133861  0.37619187  0.09956558    -0.40400
C1158       C  0.84943364  0.35951141  0.12596769     0.20400
N1159       N  0.86507391  0.34166738  0.17294891    -0.33700
C1160       C  0.83748252  0.33034499  0.16209932    -0.11200
C1161       C  0.82695588  0.34093785  0.13291075    -0.30000
N1162       N  0.88521487  0.41060909  0.07767222    -0.46600
C1163       C  0.91287030  0.42186825  0.08847045    -0.05900
C1164       C  0.92331419  0.41134506  0.11772882    -0.23300
H1165       H  0.91671020  0.37619198  0.17052983     0.18500
H1166       H  0.83349026  0.37615957  0.08016628     0.17300
H1167       H  0.80584910  0.33563564  0.11862179     0.13600
H1168       H  0.94448096  0.41658869  0.13196617     0.13500
H1169       H  0.87817261  0.33741038  0.19403216     0.31600
H1170       H  0.87218110  0.41481357  0.05653213     0.34400
N1171       N  0.96221368  0.47140463  0.93927544    -0.06500
N1172       N  0.95682861  0.45302857  0.91832660    -0.58600
N1173       N  0.93977296  0.02957640  0.96117981    -0.06100
N1174       N  0.91880469  0.04805540  0.95573557    -0.60700
N1175       N  0.96262407  0.02938012  0.93869723    -0.05700
N1176       N  0.95769340  0.04768654  0.91747307    -0.58600
N1177       N  0.93955381  0.47148615  0.96195165    -0.05400
N1178       N  0.91834826  0.45310930  0.95699442    -0.61100
C1179       C  0.92950149  0.44176078  0.92978704     0.95700
C1180       C  0.93037767  0.05918076  0.92848151     0.95500
N1181       N  0.96215794  0.03014530  0.56033650    -0.06700
N1182       N  0.95683038  0.04856332  0.58123116    -0.59200
N1183       N  0.93922994  0.47198087  0.53850773    -0.04800
N1184       N  0.91797108  0.45371082  0.54408502    -0.60400
N1185       N  0.96192967  0.47219638  0.56113294    -0.06700
N1186       N  0.95663075  0.45411847  0.58257683    -0.59400
N1187       N  0.93946000  0.03002006  0.53770053    -0.04400
N1188       N  0.91822095  0.04836672  0.54269062    -0.60500
Mn1189     Mn  0.93847138  0.50075532  0.49981377     1.18400
C1190       C  0.92945308  0.05978266  0.56982770     0.97800
C1191       C  0.92923945  0.44273957  0.57157525     0.98500
N1192       N  0.53966014  0.02916286  0.93894073    -0.06700
N1193       N  0.54521031  0.04741003  0.91774880    -0.63000
N1194       N  0.56190198  0.47118087  0.96224592    -0.05500
N1195       N  0.58312723  0.45283660  0.95721014    -0.63700
N1196       N  0.53926084  0.47114465  0.93955127    -0.06200
N1197       N  0.54458099  0.45275961  0.91860586    -0.63300
N1198       N  0.56227397  0.02912816  0.96165569    -0.05100
N1199       N  0.58367577  0.04732355  0.95643842    -0.64000
Mn1200     Mn  0.50093070  0.00027449  0.93809665     1.10700
C1201       C  0.57265633  0.05856895  0.92907038     0.99000
C1202       C  0.57192063  0.44149233  0.93001546     0.99100
N1203       N  0.53876911  0.47186256  0.56127500    -0.06200
N1204       N  0.54369854  0.45359050  0.58255360    -0.61600
N1205       N  0.56201712  0.02964581  0.53802842    -0.05500
N1206       N  0.58341118  0.04787173  0.54309377    -0.58300
N1207       N  0.53927447  0.02985463  0.56061209    -0.06800
N1208       N  0.54476968  0.04817835  0.58160286    -0.61200
N1209       N  0.56168268  0.47167357  0.53886236    -0.05800
N1210       N  0.58279346  0.45333427  0.54449230    -0.58300
Mn1211     Mn  0.50052805  0.00104129  0.56180941     1.20200
Mn1212     Mn  0.56295399  0.00038710  0.50019577     1.10100
Cl1213     Cl  0.50071330  0.00061407  0.49997178    -0.86300
C1214       C  0.57116286  0.44220660  0.57171206     0.96000
C1215       C  0.57226637  0.05927158  0.57026585     0.95800
N1216       N  0.78902666  0.27952462  0.68901010    -0.06500
N1217       N  0.79407161  0.29777349  0.66774202    -0.58600
N1218       N  0.81217243  0.22172963  0.71199025    -0.06100
N1219       N  0.83367209  0.20360716  0.70675040    -0.60700
N1220       N  0.78945795  0.22157774  0.68937075    -0.05700
N1221       N  0.79502933  0.20336497  0.66824443    -0.58600
N1222       N  0.81176225  0.27976629  0.71160037    -0.05400
N1223       N  0.83278379  0.29822567  0.70618013    -0.61100
C1224       C  0.82134018  0.30928536  0.67882260     0.95700
C1225       C  0.82257705  0.19229928  0.67948164     0.95500
N1226       N  0.78916604  0.22193489  0.81113368    -0.06700
N1227       N  0.79446426  0.20378268  0.83247965    -0.59200
N1228       N  0.81162793  0.27994237  0.78811975    -0.04800
N1229       N  0.83282471  0.29829315  0.79322935    -0.60400
N1230       N  0.78899948  0.27986959  0.81082792    -0.06700
N1231       N  0.79441359  0.29811713  0.83196415    -0.59400
N1232       N  0.81199149  0.22189774  0.78862070    -0.04400
N1233       N  0.83331993  0.20367984  0.79418157    -0.60500
Mn1234     Mn  0.81290345  0.25083377  0.75008989     1.18400
C1235       C  0.82197597  0.19254394  0.82153053     0.97800
C1236       C  0.82171529  0.30946999  0.82056433     0.98500
N1237       N  0.71232539  0.22134004  0.68921212    -0.06700
N1238       N  0.70690778  0.20311260  0.66805568    -0.63000
N1239       N  0.68925056  0.27928021  0.71130185    -0.05500
N1240       N  0.66780442  0.29738577  0.70562327    -0.63700
N1241       N  0.71215877  0.27929906  0.68888187    -0.06200
N1242       N  0.70689578  0.29747457  0.66755742    -0.63300
N1243       N  0.68962235  0.22133485  0.71183888    -0.05100
N1244       N  0.66833798  0.20306183  0.70663908    -0.64000
Mn1245     Mn  0.75075435  0.25041321  0.68816148     1.10700
C1246       C  0.67950139  0.19185346  0.67934576     0.99000
C1247       C  0.67923835  0.30858792  0.67836577     0.99100
N1248       N  0.71185522  0.27963847  0.81062583    -0.06200
N1249       N  0.70628013  0.29785361  0.83174830    -0.61600
N1250       N  0.68947870  0.22159315  0.78824708    -0.05500
N1251       N  0.66822626  0.20329320  0.79344954    -0.58300
N1252       N  0.71211311  0.22163625  0.81094356    -0.06800
N1253       N  0.70672426  0.20333523  0.83210473    -0.61200
N1254       N  0.68917572  0.27951882  0.78796695    -0.05800
N1255       N  0.66767493  0.29763685  0.79320360    -0.58300
Mn1256     Mn  0.75053428  0.25077406  0.81188478     1.20200
Mn1257     Mn  0.68841064  0.25044640  0.74984873     1.10100
Cl1258     Cl  0.75065739  0.25061475  0.75000514    -0.86300
C1259       C  0.67874958  0.30893018  0.82048533     0.96000
C1260       C  0.67935749  0.19206064  0.82078086     0.95800
C1261       C  0.60129207  0.10801844  0.62247307     0.20000
C1262       C  0.60201716  0.12333061  0.65020397    -0.39900
C1263       C  0.62749096  0.14099440  0.65142899     0.19000
C1264       C  0.65049619  0.14321829  0.62692108     0.21600
C1265       C  0.64976656  0.12790597  0.59917741    -0.40400
C1266       C  0.62429295  0.11022826  0.59795828     0.20400
N1267       N  0.57966947  0.08972721  0.61558812    -0.33700
C1268       C  0.58903046  0.08021363  0.58653290    -0.11200
C1269       C  0.61674349  0.09248680  0.57473405    -0.30000
N1270       N  0.67213725  0.16149442  0.63385719    -0.46600
C1271       C  0.66277127  0.17095984  0.66294309    -0.05900
C1272       C  0.63504800  0.15868555  0.67469466    -0.23300
H1273       H  0.58408063  0.12161487  0.66940109     0.18500
H1274       H  0.66771302  0.12961315  0.57998854     0.17300
H1275       H  0.62966818  0.08883241  0.55229825     0.13600
H1276       H  0.62212375  0.16230233  0.69714122     0.13500
H1277       H  0.55991059  0.08395771  0.62985031     0.31600
H1278       H  0.69191377  0.16727296  0.61962572     0.34400
C1279       C  0.60087543  0.10823377  0.87763903     0.20000
C1280       C  0.60065573  0.12454596  0.85078403    -0.39900
C1281       C  0.62679927  0.14159050  0.84901463     0.19000
C1282       C  0.65128028  0.14233604  0.87221958     0.21600
C1283       C  0.65150101  0.12602035  0.89907941    -0.40400
C1284       C  0.62535364  0.10897127  0.90084798     0.20400
N1285       N  0.57886312  0.09026749  0.88481906    -0.33700
C1286       C  0.58943449  0.07952908  0.91278318    -0.11200
C1287       C  0.61832487  0.09065870  0.92356096    -0.30000
N1288       N  0.67327198  0.16032258  0.86503643    -0.46600
C1289       C  0.66267326  0.17105679  0.83707539    -0.05900
C1290       C  0.63379737  0.15990634  0.82630729    -0.23300
H1291       H  0.58154961  0.12400687  0.83262003     0.18500
H1292       H  0.67060114  0.12656506  0.91724915     0.17300
H1293       H  0.63233424  0.08590319  0.94501261     0.13600
H1294       H  0.61976333  0.16466211  0.80487168     0.13500
H1295       H  0.55802797  0.08554215  0.87149060     0.31600
H1296       H  0.69409882  0.16507003  0.87836444     0.34400
C1297       C  0.62662725  0.35721616  0.64896479     0.20000
C1298       C  0.59862995  0.37247071  0.64784826    -0.39900
C1299       C  0.59800180  0.39056937  0.62296969     0.19000
C1300       C  0.62328551  0.39320874  0.60086035     0.21600
C1301       C  0.65125726  0.37794435  0.60195811    -0.40400
C1302       C  0.65189480  0.35986597  0.62684037     0.20400
N1303       N  0.63320436  0.33868255  0.67028553    -0.33700
C1304       C  0.66282646  0.32949001  0.66159158    -0.11200
C1305       C  0.67526309  0.34217167  0.63461028    -0.30000
N1306       N  0.61683070  0.41182567  0.57964200    -0.46600
C1307       C  0.58727910  0.42111550  0.58837381    -0.05900
C1308       C  0.57473552  0.40838457  0.61527900    -0.23300
H1309       H  0.57885007  0.37044011  0.66510934     0.18500
H1310       H  0.67106641  0.38000797  0.58473610     0.17300
H1311       H  0.69827601  0.33887689  0.62237081     0.13600
H1312       H  0.55176660  0.41176300  0.62756127     0.13500
H1313       H  0.61843979  0.33260318  0.68946125     0.31400
H1314       H  0.63166980  0.41793262  0.56053706     0.34400
C1315       C  0.85100213  0.14324279  0.62738225     0.20000
C1316       C  0.85087511  0.12728358  0.60023812    -0.39900
C1317       C  0.87705635  0.11028900  0.59822157     0.19000
C1318       C  0.90148408  0.10928690  0.62146497     0.21600
C1319       C  0.90163178  0.12526699  0.64858724    -0.40400
C1320       C  0.87544145  0.14225061  0.65061391     0.20400
N1321       N  0.82893563  0.16107615  0.63484036    -0.33700
C1322       C  0.83943010  0.17149263  0.66299466    -0.11200
C1323       C  0.86833087  0.16026572  0.67362795    -0.30000
N1324       N  0.92342334  0.09132829  0.61413574    -0.46600
C1325       C  0.91285215  0.08083069  0.58606098    -0.05900
C1326       C  0.88404860  0.09215263  0.57532831    -0.23300
H1327       H  0.83177824  0.12801439  0.58207310     0.18500
H1328       H  0.92068488  0.12449338  0.66679461     0.17300
H1329       H  0.88230931  0.16478079  0.69516165     0.13600
H1330       H  0.86999751  0.08756443  0.55386704     0.13500
H1331       H  0.80812442  0.16594639  0.62153988     0.31600
H1332       H  0.94415800  0.08638808  0.62751146     0.34400
C1333       C  0.90012988  0.39326810  0.87734171     0.20000
C1334       C  0.89889220  0.37834729  0.84926928    -0.39900
C1335       C  0.87362177  0.36049341  0.84825593     0.19000
C1336       C  0.85127860  0.35773525  0.87327435     0.21600
C1337       C  0.85252899  0.37264827  0.90135899    -0.40400
C1338       C  0.87779136  0.39051526  0.90236528     0.20400
N1339       N  0.92162454  0.41168622  0.88409190    -0.33700
C1340       C  0.91282084  0.42075039  0.91355952    -0.11200
C1341       C  0.88562528  0.40803834  0.92577104    -0.30000
N1342       N  0.82971648  0.33937241  0.86646084    -0.46600
C1343       C  0.83847944  0.33036761  0.83694932    -0.05900
C1344       C  0.86572325  0.34304528  0.82479015    -0.23300
H1345       H  0.91629992  0.38049120  0.82966569     0.18500
H1346       H  0.83509737  0.37052533  0.92094485     0.17300
H1347       H  0.87317161  0.41130523  0.94856658     0.13600
H1348       H  0.87814204  0.33982589  0.80196415     0.13500
H1349       H  0.94089151  0.41786448  0.86945224     0.31600
H1350       H  0.81041145  0.33321426  0.88106428     0.34400
C1351       C  0.87934430  0.10931305  0.90055652     0.20000
C1352       C  0.85254009  0.12580360  0.90080377    -0.39900
C1353       C  0.85063902  0.14259252  0.87452030     0.19000
C1354       C  0.87369627  0.14296168  0.84990251     0.21600
C1355       C  0.90053480  0.12649398  0.84968205    -0.40400
C1356       C  0.90241906  0.10968292  0.87595437     0.20400
N1357       N  0.88649827  0.09140513  0.92256250    -0.33700
C1358       C  0.91430439  0.08032163  0.91185693    -0.11200
C1359       C  0.92502752  0.09119977  0.88290814    -0.30000
N1360       N  0.86635888  0.16072354  0.82774885    -0.46600
C1361       C  0.83843753  0.17168618  0.83837586    -0.05900
C1362       C  0.82786136  0.16090905  0.86743552    -0.23300
H1363       H  0.83445709  0.12553214  0.91998523     0.18500
H1364       H  0.91856271  0.12671267  0.83044889     0.17300
H1365       H  0.94630737  0.08610988  0.86874944     0.13600
H1366       H  0.80648984  0.16589465  0.88152015     0.13500
H1367       H  0.87320488  0.08689543  0.94343969     0.31600
H1368       H  0.87954667  0.16516447  0.80678207     0.34400
C1369       C  0.65056157  0.35824828  0.87227652     0.20000
C1370       C  0.65095387  0.37448050  0.89914104    -0.39900
C1371       C  0.62454436  0.39124007  0.90137629     0.19000
C1372       C  0.59966515  0.39178889  0.87858529     0.21600
C1373       C  0.59925523  0.37553707  0.85173506    -0.40400
C1374       C  0.62567540  0.35878275  0.84949219     0.20400
N1375       N  0.67275222  0.34053544  0.86471735    -0.33700
C1376       C  0.66189668  0.32974501  0.83693828    -0.11200
C1377       C  0.63263828  0.34060612  0.82664913    -0.30000
N1378       N  0.57758698  0.40961478  0.88604412    -0.46600
C1379       C  0.58852245  0.42046450  0.91375713    -0.05900
C1380       C  0.61769451  0.40951263  0.92411936    -0.23300
H1381       H  0.67040013  0.37410973  0.91695394     0.18500
H1382       H  0.57984552  0.37594513  0.83388407     0.17300
H1383       H  0.61832679  0.33573984  0.80546143     0.13600
H1384       H  0.63207714  0.41443344  0.94523855     0.13500
H1385       H  0.69388089  0.33598799  0.87770853     0.31600
H1386       H  0.55652014  0.41423256  0.87299481     0.34400
C1387       C  0.87225978  0.35946922  0.65080188     0.20000
C1388       C  0.89882705  0.37619194  0.65116136    -0.39900
C1389       C  0.90073901  0.39286443  0.62475398     0.19000
C1390       C  0.87792374  0.39290028  0.59990906     0.21600
C1391       C  0.85133905  0.37619197  0.59956456    -0.40400
C1392       C  0.84943404  0.35951131  0.62596644     0.20400
N1393       N  0.86507436  0.34166682  0.67294735    -0.33700
C1394       C  0.83748282  0.33034466  0.66209768    -0.11200
C1395       C  0.82695618  0.34093779  0.63290930    -0.30000
N1396       N  0.88521541  0.41060933  0.57767175    -0.46600
C1397       C  0.91287092  0.42186832  0.58847006    -0.05900
C1398       C  0.92331490  0.41134475  0.61772813    -0.23300
H1399       H  0.91671092  0.37619124  0.67052860     0.18500
H1400       H  0.83349063  0.37615990  0.58016534     0.17300
H1401       H  0.80584927  0.33563576  0.61862035     0.13600
H1402       H  0.94448174  0.41658825  0.63196553     0.13500
H1403       H  0.87817313  0.33740959  0.69403046     0.31600
H1404       H  0.87218148  0.41481411  0.55653182     0.34400
N1405       N  0.96221335  0.97140463  0.43927556    -0.06500
N1406       N  0.95682824  0.95302856  0.41832675    -0.58600
N1407       N  0.93977301  0.52957640  0.46117981    -0.06100
N1408       N  0.91880477  0.54805540  0.45573560    -0.60700
N1409       N  0.96262411  0.52938010  0.43869721    -0.05700
N1410       N  0.95769345  0.54768653  0.41747307    -0.58600
N1411       N  0.93955342  0.97148628  0.46195170    -0.05400
N1412       N  0.91834773  0.95310951  0.45699443    -0.61100
C1413       C  0.92950097  0.94176092  0.42978710     0.95700
C1414       C  0.93037775  0.55918076  0.42848150     0.95500
N1415       N  0.96215799  0.53014542  0.06033625    -0.06700
N1416       N  0.95683032  0.54856345  0.08123089    -0.59200
N1417       N  0.93922992  0.97198103  0.03850774    -0.04800
N1418       N  0.91797089  0.95371112  0.04408514    -0.60400
N1419       N  0.96192962  0.97219656  0.06113297    -0.06700
N1420       N  0.95663050  0.95411880  0.08257701    -0.59400
N1421       N  0.93945999  0.53002004  0.03770035    -0.04400
N1422       N  0.91822078  0.54836658  0.04269046    -0.60500
Mn1423     Mn  0.93847139  0.00075539  0.99981377     1.18400
C1424       C  0.92945286  0.55978262  0.06982750     0.97800
C1425       C  0.92923915  0.94273996  0.07157548     0.98500
N1426       N  0.53966016  0.52916285  0.43894075    -0.06700
N1427       N  0.54521042  0.54740993  0.41774876    -0.63000
N1428       N  0.56190169  0.97118078  0.46224604    -0.05500
N1429       N  0.58312683  0.95283644  0.45721035    -0.63700
N1430       N  0.53926049  0.97114453  0.43955145    -0.06200
N1431       N  0.54458051  0.95275937  0.41860616    -0.63300
N1432       N  0.56227407  0.52912808  0.46165565    -0.05100
N1433       N  0.58367605  0.54732331  0.45643822    -0.64000
Mn1434     Mn  0.50093069  0.50027448  0.43809666     1.10700
C1435       C  0.57265663  0.55856872  0.42907018     0.99000
C1436       C  0.57192012  0.94149207  0.43001577     0.99100
N1437       N  0.53876919  0.97186270  0.06127497    -0.06200
N1438       N  0.54369862  0.95359062  0.08255355    -0.61600
N1439       N  0.56201727  0.52964592  0.03802830    -0.05500
N1440       N  0.58341129  0.54787189  0.04309360    -0.58300
N1441       N  0.53927458  0.52985479  0.06061193    -0.06800
N1442       N  0.54476976  0.54817852  0.08160266    -0.61200
N1443       N  0.56168280  0.97167374  0.03886238    -0.05800
N1444       N  0.58279359  0.95333445  0.04449230    -0.58300
Mn1445     Mn  0.50052821  0.50104146  0.06180933     1.20200
Mn1446     Mn  0.56295417  0.50038715  0.00019570     1.10100
Cl1447     Cl  0.50071350  0.50061413  0.99997167    -0.86300
C1448       C  0.57116296  0.94220676  0.07171203     0.96000
C1449       C  0.57226642  0.55927175  0.07026568     0.95800
N1450       N  0.78902667  0.77952480  0.18901019    -0.06500
N1451       N  0.79407152  0.79777372  0.16774217    -0.58600
N1452       N  0.81217252  0.72172978  0.21199022    -0.06100
N1453       N  0.83367213  0.70360726  0.20675042    -0.60700
N1454       N  0.78945804  0.72157790  0.18937069    -0.05700
N1455       N  0.79502941  0.70336507  0.16824443    -0.58600
N1456       N  0.81176223  0.77976650  0.21160050    -0.05400
N1457       N  0.83278367  0.79822596  0.20618032    -0.61100
C1458       C  0.82134000  0.80928566  0.17882280     0.95700
C1459       C  0.82257709  0.69229934  0.17948168     0.95500
N1460       N  0.78916599  0.72193489  0.31113363    -0.06700
N1461       N  0.79446410  0.70378258  0.33247948    -0.59200
N1462       N  0.81162781  0.77994240  0.28811996    -0.04800
N1463       N  0.83282446  0.79829327  0.29322953    -0.60400
N1464       N  0.78899929  0.77986960  0.31082807    -0.06700
N1465       N  0.79441318  0.79811727  0.33196419    -0.59400
N1466       N  0.81199145  0.72189776  0.28862066    -0.04400
N1467       N  0.83331980  0.70367978  0.29418144    -0.60500
Mn1468     Mn  0.81290342  0.75083389  0.25008994     1.18400
C1469       C  0.82197575  0.69254379  0.32153030     0.97800
C1470       C  0.82171485  0.80947015  0.32056441     0.98500
N1471       N  0.71232545  0.72134025  0.18921196    -0.06700
N1472       N  0.70690777  0.70311292  0.16805535    -0.63000
N1473       N  0.68925066  0.77928038  0.21130191    -0.05500
N1474       N  0.66780457  0.79738598  0.20562337    -0.63700
N1475       N  0.71215891  0.77929928  0.18888194    -0.06200
N1476       N  0.70689600  0.79747486  0.16755759    -0.63300
N1477       N  0.68962244  0.72133499  0.21183871    -0.05100
N1478       N  0.66833801  0.70306204  0.20663879    -0.64000
Mn1479     Mn  0.75075444  0.75041339  0.18816147     1.10700
C1480       C  0.67950134  0.69185376  0.17934540     0.99000
C1481       C  0.67923856  0.80858820  0.17836592     0.99100
N1482       N  0.71185496  0.77963834  0.31062601    -0.06200
N1483       N  0.70627966  0.79785331  0.33174868    -0.61600
N1484       N  0.68947870  0.72159308  0.28824700    -0.05500
N1485       N  0.66822621  0.70329317  0.29344952    -0.58300
N1486       N  0.71211320  0.72163609  0.31094340    -0.06800
N1487       N  0.70672445  0.70333500  0.33210448    -0.61200
N1488       N  0.68917550  0.77951871  0.28796711    -0.05800
N1489       N  0.66767448  0.79763654  0.29320396    -0.58300
Mn1490     Mn  0.75053419  0.75077401  0.31188483     1.20200
Mn1491     Mn  0.68841065  0.75044644  0.24984870     1.10100
Cl1492     Cl  0.75065738  0.75061488  0.25000516    -0.86300
C1493       C  0.67874898  0.80892978  0.32048582     0.96000
C1494       C  0.67935758  0.69206049  0.32078070     0.95800
C1495       C  0.60129210  0.60801863  0.12247288     0.20000
C1496       C  0.60201735  0.62333076  0.15020379    -0.39900
C1497       C  0.62749097  0.64099470  0.15142864     0.19000
C1498       C  0.65049592  0.64321880  0.12692052     0.21600
C1499       C  0.64976609  0.62790655  0.09917683    -0.40400
C1500       C  0.62429268  0.61022869  0.09795786     0.20400
N1501       N  0.57966961  0.58972724  0.11558812    -0.33700
C1502       C  0.58903045  0.58021384  0.08653270    -0.11200
C1503       C  0.61674317  0.59248725  0.07473363    -0.30000
N1504       N  0.67213697  0.66149497  0.13385658    -0.46600
C1505       C  0.66277123  0.67096019  0.16294266    -0.05900
C1506       C  0.63504814  0.65868573  0.17469440    -0.23300
H1507       H  0.58408106  0.62161485  0.16940119     0.18500
H1508       H  0.66771239  0.62961387  0.07998770     0.17300
H1509       H  0.62966763  0.58883305  0.05229765     0.13600
H1510       H  0.62212414  0.66230231  0.19714115     0.13500
H1511       H  0.55991098  0.58395752  0.12985047     0.31600
H1512       H  0.69191334  0.66727365  0.11962502     0.34400
C1513       C  0.60087546  0.60823380  0.37763912     0.20000
C1514       C  0.60065513  0.62454649  0.35078462    -0.39900
C1515       C  0.62679907  0.64159066  0.34901484     0.19000
C1516       C  0.65128095  0.64233541  0.37221894     0.21600
C1517       C  0.65150230  0.62601918  0.39907820    -0.40400
C1518       C  0.62535454  0.60897046  0.40084720     0.20400
N1519       N  0.57886290  0.59026780  0.38481944    -0.33700
C1520       C  0.58943490  0.57952875  0.41278290    -0.11200
C1521       C  0.61832603  0.59065766  0.42355995    -0.30000
N1522       N  0.67327287  0.66032177  0.36503562    -0.46600
C1523       C  0.66267339  0.67105662  0.33707523    -0.05900
C1524       C  0.63379686  0.65990678  0.32630780    -0.23300
H1525       H  0.58154835  0.62400802  0.33262135     0.18500
H1526       H  0.67060315  0.62656328  0.41724723     0.17300
H1527       H  0.63233600  0.58590156  0.44501100     0.13600
H1528       H  0.61976218  0.66466312  0.30487281     0.13500
H1529       H  0.55802708  0.58554310  0.37149158     0.31600
H1530       H  0.69410026  0.66506867  0.37836303     0.34400
C1531       C  0.62662749  0.85721643  0.14896486     0.20000
C1532       C  0.59863013  0.87247095  0.14784830    -0.39900
C1533       C  0.59800198  0.89056955  0.12296965     0.19000
C1534       C  0.62328570  0.89320894  0.10086030     0.21600
C1535       C  0.65125746  0.87794453  0.10195808    -0.40400
C1536       C  0.65189502  0.85986620  0.12684039     0.20400
N1537       N  0.63320461  0.83868289  0.17028567    -0.33700
C1538       C  0.66282670  0.82949031  0.16159174    -0.11200
C1539       C  0.67526329  0.84217191  0.13461039    -0.30000
N1540       N  0.61683091  0.91182591  0.07964199    -0.46600
C1541       C  0.58727925  0.92111570  0.08837379    -0.05900
C1542       C  0.57473569  0.90838474  0.11527895    -0.23300
H1543       H  0.57885036  0.87044040  0.16510936     0.18500
H1544       H  0.67106661  0.88000812  0.08473606     0.17300
H1545       H  0.69827622  0.83887705  0.12237091     0.13600
H1546       H  0.55176678  0.91176314  0.12756125     0.13500
H1547       H  0.61844002  0.83260359  0.18946140     0.31400
H1548       H  0.63167000  0.91793292  0.06053711     0.34400
C1549       C  0.85100183  0.64324258  0.12738238     0.20000
C1550       C  0.85087467  0.62728335  0.10023825    -0.39900
C1551       C  0.87705596  0.61028881  0.09822158     0.19000
C1552       C  0.90148385  0.60928681  0.12146482     0.21600
C1553       C  0.90163176  0.62526695  0.14858704    -0.40400
C1554       C  0.87544133  0.64225051  0.15061386     0.20400
N1555       N  0.82893534  0.66107593  0.13484061    -0.33700
C1556       C  0.83942997  0.67149252  0.16299478    -0.11200
C1557       C  0.86833086  0.66026565  0.17362788    -0.30000
N1558       N  0.92342310  0.59132824  0.11413543    -0.46600
C1559       C  0.91285183  0.58083060  0.08606080    -0.05900
C1560       C  0.88404816  0.59215243  0.07532831    -0.23300
H1561       H  0.83177772  0.62801411  0.08207338     0.18500
H1562       H  0.92068501  0.62449343  0.16679417     0.17300
H1563       H  0.88230955  0.66478082  0.19516140     0.13600
H1564       H  0.86999688  0.58756416  0.05386713     0.13500
H1565       H  0.80812405  0.66594615  0.12154023     0.31600
H1566       H  0.94415791  0.58638808  0.12751104     0.34400
C1567       C  0.90012926  0.89326829  0.37734176     0.20000
C1568       C  0.89889184  0.87834729  0.34926950    -0.39900
C1569       C  0.87362111  0.86049367  0.34825592     0.19000
C1570       C  0.85127751  0.85773585  0.37327403     0.21600
C1571       C  0.85252760  0.87264911  0.40135846    -0.40400
C1572       C  0.87779019  0.89051589  0.40236495     0.20400
N1573       N  0.92162418  0.91168618  0.38409213    -0.33700
C1574       C  0.91282013  0.92075065  0.41355948    -0.11200
C1575       C  0.88562407  0.90803904  0.42577060    -0.30000
N1576       N  0.82971537  0.83937298  0.36646057    -0.46600
C1577       C  0.83847881  0.83036788  0.33694930    -0.05900
C1578       C  0.86572289  0.84304533  0.32479034    -0.23300
H1579       H  0.91630000  0.88049081  0.32966625     0.18500
H1580       H  0.83509563  0.87052643  0.42094409     0.17300
H1581       H  0.87317002  0.91130622  0.44856595     0.13600
H1582       H  0.87814213  0.83982557  0.30196468     0.13500
H1583       H  0.94089157  0.91786408  0.36945278     0.31600
H1584       H  0.81041017  0.83321500  0.38106381     0.34400
C1585       C  0.87934438  0.60931309  0.40055657     0.20000
C1586       C  0.85254033  0.62580377  0.40080394    -0.39900
C1587       C  0.85063897  0.64259246  0.37452026     0.19000
C1588       C  0.87369581  0.64296125  0.34990208     0.21600
C1589       C  0.90053421  0.62649343  0.34968145    -0.40400
C1590       C  0.90241874  0.60968261  0.37595404     0.20400
N1591       N  0.88649855  0.59140534  0.42256272    -0.33700
C1592       C  0.91430438  0.58032157  0.41185686    -0.11200
C1593       C  0.92502708  0.59119937  0.38290769    -0.30000
N1594       N  0.86635825  0.66072299  0.32774830    -0.46600
C1595       C  0.83843724  0.67168594  0.33837562    -0.05900
C1596       C  0.82786143  0.66090912  0.36743559    -0.23300
H1597       H  0.83445764  0.62553260  0.41998576     0.18500
H1598       H  0.91856179  0.62671185  0.33044804     0.17300
H1599       H  0.94630660  0.58610918  0.36874864     0.13600
H1600       H  0.80649023  0.66589499  0.38152058     0.13500
H1601       H  0.87320549  0.58689593  0.44344021     0.31600
H1602       H  0.87954577  0.66516368  0.30678126     0.34400
C1603       C  0.65056089  0.85824773  0.37227720     0.20000
C1604       C  0.65095337  0.87448017  0.39914152    -0.39900
C1605       C  0.62454378  0.89123967  0.40137680     0.19000
C1606       C  0.59966429  0.89178818  0.37858607     0.21600
C1607       C  0.59925410  0.87553606  0.35173614    -0.40400
C1608       C  0.62567437  0.85878185  0.34949323     0.20400
N1609       N  0.67275170  0.84053506  0.36471785    -0.33700
C1610       C  0.66189592  0.82974440  0.33693900    -0.11200
C1611       C  0.63263718  0.84060518  0.32665022    -0.30000
N1612       N  0.57758612  0.90961408  0.38604484    -0.46600
C1613       C  0.58852186  0.92046413  0.41375753    -0.05900
C1614       C  0.61769409  0.90951245  0.42411965    -0.23300
H1615       H  0.67039981  0.87410964  0.41695422     0.18500
H1616       H  0.57984423  0.87594388  0.33388539     0.17300
H1617       H  0.61832552  0.83573878  0.30546269     0.13600
H1618       H  0.63207685  0.91443350  0.44523860     0.13500
H1619       H  0.69388068  0.83598790  0.37770872     0.31600
H1620       H  0.55651908  0.91423164  0.37299570     0.34400
C1621       C  0.87225927  0.85946976  0.15080229     0.20000
C1622       C  0.89882645  0.87619257  0.15116189    -0.39900
C1623       C  0.90073847  0.89286501  0.12475443     0.19000
C1624       C  0.87792335  0.89290072  0.09990934     0.21600
C1625       C  0.85133875  0.87619231  0.09956475    -0.40400
C1626       C  0.84943369  0.85951170  0.12596668     0.20400
N1627       N  0.86507384  0.84166738  0.17294775    -0.33700
C1628       C  0.83748250  0.83034503  0.16209793    -0.11200
C1629       C  0.82695589  0.84093805  0.13290943    -0.30000
N1630       N  0.88521509  0.91060970  0.07767192    -0.46600
C1631       C  0.91287049  0.92186879  0.08847036    -0.05900
C1632       C  0.92331430  0.91134537  0.11772857    -0.23300
H1633       H  0.91671015  0.87619191  0.17052920     0.18500
H1634       H  0.83349048  0.87616012  0.08016545     0.17300
H1635       H  0.80584921  0.83563593  0.11862041     0.13600
H1636       H  0.94448109  0.91658897  0.13196607     0.13500
H1637       H  0.87817249  0.83741024  0.19403099     0.31600
H1638       H  0.87218131  0.91481433  0.05653190     0.34400
N1639       N  0.96221357  0.97140545  0.93927610    -0.06500
N1640       N  0.95682847  0.95302936  0.91832733    -0.58600
N1641       N  0.93977316  0.52957545  0.96117924    -0.06100
N1642       N  0.91880483  0.54805440  0.95573505    -0.60700
N1643       N  0.96262437  0.52937930  0.93869678    -0.05700
N1644       N  0.95769372  0.54768580  0.91747272    -0.58600
N1645       N  0.93955368  0.97148709  0.96195227    -0.05400
N1646       N  0.91834806  0.95311026  0.95699508    -0.61100
C1647       C  0.92950128  0.94176166  0.92978773     0.95700
C1648       C  0.93037789  0.55917990  0.92848111     0.95500
N1649       N  0.96215783  0.53014604  0.56033701    -0.06700
N1650       N  0.95683006  0.54856389  0.58123187    -0.59200
N1651       N  0.93922955  0.97198019  0.53850731    -0.04800
N1652       N  0.91797038  0.95371040  0.54408479    -0.60400
N1653       N  0.96192926  0.97219567  0.56113257    -0.06700
N1654       N  0.95662997  0.95411801  0.58257668    -0.59400
N1655       N  0.93945987  0.53002077  0.53770108    -0.04400
N1656       N  0.91822058  0.54836724  0.54269137    -0.60500
Mn1657     Mn  0.93847126  0.00075455  0.49981330     1.18400
C1658       C  0.92945258  0.55978309  0.56982857     0.97800
C1659       C  0.92923853  0.94273927  0.57157522     0.98500
N1660       N  0.53966052  0.52916181  0.93894036    -0.06700
N1661       N  0.54521085  0.54740902  0.91774857    -0.63000
N1662       N  0.56190212  0.97118217  0.96224641    -0.05500
N1663       N  0.58312749  0.95283797  0.95721071    -0.63700
N1664       N  0.53926085  0.97114570  0.93955189    -0.06200
N1665       N  0.54458105  0.95276057  0.91860661    -0.63300
N1666       N  0.56227443  0.52912682  0.96165527    -0.05100
N1667       N  0.58367647  0.54732205  0.95643803    -0.64000
Mn1668     Mn  0.50093088  0.50027358  0.93809614     1.10700
C1669       C  0.57265708  0.55856767  0.92907011     0.99000
C1670       C  0.57192084  0.94149350  0.93001619     0.99100
N1671       N  0.53876872  0.97186145  0.56127468    -0.06200
N1672       N  0.54369797  0.95358941  0.58255332    -0.61600
N1673       N  0.56201698  0.52964714  0.53802870    -0.05500
N1674       N  0.58341077  0.54787327  0.54309398    -0.58300
N1675       N  0.53927438  0.52985576  0.56061240    -0.06800
N1676       N  0.54476936  0.54817952  0.58160316    -0.61200
N1677       N  0.56168233  0.97167231  0.53886206    -0.05800
N1678       N  0.58279290  0.95333290  0.54449202    -0.58300
Mn1679     Mn  0.50052823  0.50104223  0.56180984     1.20200
Mn1680     Mn  0.56295415  0.50038842  0.50019609     1.10100
Cl1681     Cl  0.50071345  0.50061506  0.49997222    -0.86300
C1682       C  0.57116220  0.94220533  0.57171180     0.96000
C1683       C  0.57226585  0.55927301  0.57026610     0.95800
N1684       N  0.78902647  0.77952481  0.68901208    -0.06500
N1685       N  0.79407115  0.79777370  0.66774396    -0.58600
N1686       N  0.81217250  0.72172981  0.71199218    -0.06100
N1687       N  0.83367201  0.70360721  0.70675239    -0.60700
N1688       N  0.78945791  0.72157790  0.68937278    -0.05700
N1689       N  0.79502908  0.70336497  0.66824659    -0.58600
N1690       N  0.81176221  0.77976653  0.71160220    -0.05400
N1691       N  0.83278363  0.79822596  0.70618177    -0.61100
C1692       C  0.82133976  0.80928562  0.67882430     0.95700
C1693       C  0.82257678  0.69229923  0.67948380     0.95500
N1694       N  0.78916629  0.72193506  0.81113562    -0.06700
N1695       N  0.79446446  0.70378268  0.83248136    -0.59200
N1696       N  0.81162803  0.77994255  0.78812173    -0.04800
N1697       N  0.83282473  0.79829341  0.79323119    -0.60400
N1698       N  0.78899961  0.77986979  0.81082991    -0.06700
N1699       N  0.79441360  0.79811745  0.83196601    -0.59400
N1700       N  0.81199171  0.72189800  0.78862260    -0.04400
N1701       N  0.83332010  0.70368003  0.79418324    -0.60500
Mn1702     Mn  0.81290359  0.75083400  0.75009180     1.18400
C1703       C  0.82197613  0.69254397  0.82153208     0.97800
C1704       C  0.82171528  0.80947030  0.82056610     0.98500
N1705       N  0.71232535  0.72134030  0.68921430    -0.06700
N1706       N  0.70690750  0.70311311  0.66805757    -0.63000
N1707       N  0.68925060  0.77928049  0.71130407    -0.05500
N1708       N  0.66780434  0.79738593  0.70562532    -0.63700
N1709       N  0.71215875  0.77929925  0.68888401    -0.06200
N1710       N  0.70689556  0.79747457  0.66755934    -0.63300
N1711       N  0.68962233  0.72133508  0.71184107    -0.05100
N1712       N  0.66833774  0.70306225  0.70664101    -0.64000
Mn1713     Mn  0.75075430  0.75041340  0.68816362     1.10700
C1714       C  0.67950101  0.69185405  0.67934753     0.99000
C1715       C  0.67923812  0.80858791  0.67836761     0.99100
N1716       N  0.71185529  0.77963863  0.81062811    -0.06200
N1717       N  0.70628029  0.79785381  0.83175059    -0.61600
N1718       N  0.68947877  0.72159337  0.78824923    -0.05500
N1719       N  0.66822643  0.70329332  0.79345154    -0.58300
N1720       N  0.71211331  0.72163632  0.81094558    -0.06800
N1721       N  0.70672472  0.70333505  0.83210645    -0.61200
N1722       N  0.68917577  0.77951899  0.78796929    -0.05800
N1723       N  0.66767499  0.79763704  0.79320600    -0.58300
Mn1724     Mn  0.75053445  0.75077421  0.81188691     1.20200
Mn1725     Mn  0.68841072  0.75044664  0.74985095     1.10100
Cl1726     Cl  0.75065752  0.75061496  0.75000729    -0.86300
C1727       C  0.67874969  0.80893040  0.82048768     0.96000
C1728       C  0.67935791  0.69206050  0.82078258     0.95800
C1729       C  0.60129114  0.60801990  0.62247355     0.20000
C1730       C  0.60201635  0.62333183  0.65020466    -0.39900
C1731       C  0.62749006  0.64099567  0.65142981     0.19000
C1732       C  0.65049515  0.64321982  0.62692183     0.21600
C1733       C  0.64976542  0.62790774  0.59917796    -0.40400
C1734       C  0.62429187  0.61023000  0.59795868     0.20400
N1735       N  0.57966868  0.58972855  0.61558857    -0.33700
C1736       C  0.58902965  0.58021521  0.58653319    -0.11200
C1737       C  0.61674246  0.59248865  0.57473430    -0.30000
N1738       N  0.67213632  0.66149580  0.63385823    -0.46600
C1739       C  0.66277059  0.67096080  0.66294441    -0.05900
C1740       C  0.63504731  0.65868648  0.67469583    -0.23300
H1741       H  0.58408001  0.62161580  0.66940198     0.18500
H1742       H  0.66771184  0.62961507  0.57998902     0.17300
H1743       H  0.62966710  0.58883446  0.55229842     0.13600
H1744       H  0.62212326  0.66230297  0.69714259     0.13500
H1745       H  0.55991001  0.58395878  0.62985083     0.31600
H1746       H  0.69191282  0.66727446  0.61962680     0.34400
C1747       C  0.60087608  0.60823302  0.87763959     0.20000
C1748       C  0.60065592  0.62454587  0.85078524    -0.39900
C1749       C  0.62679977  0.64159013  0.84901577     0.19000
C1750       C  0.65128154  0.64233478  0.87221998     0.21600
C1751       C  0.65150279  0.62601836  0.89907907    -0.40400
C1752       C  0.62535505  0.60896962  0.90084780     0.20400
N1753       N  0.57886352  0.59026698  0.88481964    -0.33700
C1754       C  0.58943542  0.57952778  0.91278306    -0.11200
C1755       C  0.61832647  0.59065667  0.92356039    -0.30000
N1756       N  0.67327342  0.66032130  0.86503704    -0.46600
C1757       C  0.66267393  0.67105636  0.83707676    -0.05900
C1758       C  0.63379752  0.65990650  0.82630909    -0.23300
H1759       H  0.58154920  0.62400748  0.83262183     0.18500
H1760       H  0.67060355  0.62656238  0.91724820     0.17300
H1761       H  0.63233627  0.58590047  0.94501143     0.13600
H1762       H  0.61976285  0.66466306  0.80487411     0.13500
H1763       H  0.55802776  0.58554232  0.87149167     0.31600
H1764       H  0.69410066  0.66506816  0.87836463     0.34400
C1765       C  0.62662705  0.85721604  0.64896622     0.20000
C1766       C  0.59863010  0.87247098  0.64784997    -0.39900
C1767       C  0.59800147  0.89056889  0.62297051     0.19000
C1768       C  0.62328448  0.89320731  0.60086016     0.21600
C1769       C  0.65125587  0.87794250  0.60195757    -0.40400
C1770       C  0.65189381  0.85986481  0.62684069     0.20400
N1771       N  0.63320449  0.83868298  0.67028764    -0.33700
C1772       C  0.66282602  0.82948972  0.66159303    -0.11200
C1773       C  0.67526191  0.84217040  0.63461064    -0.30000
N1774       N  0.61682949  0.91182387  0.57964134    -0.46600
C1775       C  0.58727840  0.92111437  0.58837379    -0.05900
C1776       C  0.57473538  0.90838425  0.61527988    -0.23300
H1777       H  0.57885082  0.87044121  0.66511190     0.18500
H1778       H  0.67106440  0.88000537  0.58473481     0.17300
H1779       H  0.69827434  0.83887495  0.62237048     0.13600
H1780       H  0.55176704  0.91176335  0.62756280     0.13500
H1781       H  0.61844051  0.83260445  0.68946425     0.31400
H1782       H  0.63166812  0.91793016  0.56053569     0.34400
C1783       C  0.85100123  0.64324244  0.62738445     0.20000
C1784       C  0.85087401  0.62728325  0.60024025    -0.39900
C1785       C  0.87705538  0.61028880  0.59822341     0.19000
C1786       C  0.90148335  0.60928674  0.62146657     0.21600
C1787       C  0.90163121  0.62526679  0.64858890    -0.40400
C1788       C  0.87544077  0.64225032  0.65061588     0.20400
N1789       N  0.82893485  0.66107585  0.63484269    -0.33700
C1790       C  0.83942956  0.67149240  0.66299686    -0.11200
C1791       C  0.86833043  0.66026548  0.67362993    -0.30000
N1792       N  0.92342278  0.59132833  0.61413700    -0.46600
C1793       C  0.91285144  0.58083084  0.58606219    -0.05900
C1794       C  0.88404769  0.59215262  0.57532989    -0.23300
H1795       H  0.83177707  0.62801405  0.58207539     0.18500
H1796       H  0.92068456  0.62449330  0.66679600     0.17300
H1797       H  0.88230914  0.66478068  0.69516340     0.13600
H1798       H  0.86999646  0.58756447  0.55386864     0.13500
H1799       H  0.80812358  0.66594614  0.62154231     0.31600
H1800       H  0.94415762  0.58638823  0.62751243     0.34400
C1801       C  0.90012957  0.89326878  0.87734269     0.20000
C1802       C  0.89889177  0.87834789  0.84927034    -0.39900
C1803       C  0.87362136  0.86049404  0.84825717     0.19000
C1804       C  0.85127838  0.85773583  0.87327573     0.21600
C1805       C  0.85252888  0.87264892  0.90136029    -0.40400
C1806       C  0.87779116  0.89051596  0.90236636     0.20400
N1807       N  0.92162421  0.91168698  0.88409266    -0.33700
C1808       C  0.91282057  0.92075122  0.91356029    -0.11200
C1809       C  0.88562511  0.90803915  0.92577195    -0.30000
N1810       N  0.82971642  0.83937281  0.86646249    -0.46600
C1811       C  0.83847929  0.83036801  0.83695095    -0.05900
C1812       C  0.86572283  0.84304583  0.82479157    -0.23300
H1813       H  0.91629941  0.88049175  0.82966661     0.18500
H1814       H  0.83509739  0.87052598  0.92094633     0.17300
H1815       H  0.87317149  0.91130606  0.94856755     0.13600
H1816       H  0.87814156  0.83982644  0.80196542     0.13500
H1817       H  0.94089107  0.91786522  0.86945289     0.31600
H1818       H  0.81041160  0.83321455  0.88106609     0.34400
C1819       C  0.87934432  0.60931214  0.90055654     0.20000
C1820       C  0.85253990  0.62580250  0.90080386    -0.39900
C1821       C  0.85063906  0.64259188  0.87452089     0.19000
C1822       C  0.87369670  0.64296167  0.84990347     0.21600
C1823       C  0.90053549  0.62649419  0.84968293    -0.40400
C1824       C  0.90241948  0.60968261  0.87595477     0.20400
N1825       N  0.88649813  0.59140394  0.92256219    -0.33700
C1826       C  0.91430459  0.58032082  0.91185673    -0.11200
C1827       C  0.92502802  0.59119949  0.88290836    -0.30000
N1828       N  0.86635933  0.66072381  0.82775023    -0.46600
C1829       C  0.83843768  0.67168604  0.83837708    -0.05900
C1830       C  0.82786123  0.66090835  0.86743627    -0.23300
H1831       H  0.83445659  0.62553059  0.91998501     0.18500
H1832       H  0.91856367  0.62671339  0.83045009     0.17300
H1833       H  0.94630817  0.58611002  0.86874988     0.13600
H1834       H  0.80648941  0.66589353  0.88152072     0.13500
H1835       H  0.87320450  0.58689383  0.94343904     0.31600
H1836       H  0.87954741  0.66516520  0.80678373     0.34400
C1837       C  0.65056209  0.85824916  0.87227824     0.20000
C1838       C  0.65095445  0.87448167  0.89914252    -0.39900
C1839       C  0.62454486  0.89124124  0.90137753     0.19000
C1840       C  0.59966560  0.89178977  0.87858656     0.21600
C1841       C  0.59925561  0.87553768  0.85173664    -0.40400
C1842       C  0.62567581  0.85878336  0.84949402     0.20400
N1843       N  0.67275268  0.84053619  0.86471929    -0.33700
C1844       C  0.66189696  0.82974542  0.83694049    -0.11200
C1845       C  0.63263855  0.84060648  0.82665130    -0.30000
N1846       N  0.57758732  0.90961564  0.88604520    -0.46600
C1847       C  0.58852276  0.92046562  0.91375803    -0.05900
C1848       C  0.61769494  0.90951397  0.92412037    -0.23300
H1849       H  0.67040065  0.87411109  0.91695541     0.18500
H1850       H  0.57984586  0.87594550  0.83388576     0.17300
H1851       H  0.61832691  0.83574005  0.80546373     0.13600
H1852       H  0.63207752  0.91443501  0.94523943     0.13500
H1853       H  0.69388141  0.83598887  0.87771046     0.31600
H1854       H  0.55652041  0.91423322  0.87299586     0.34400
C1855       C  0.87225883  0.85946957  0.65080304     0.20000
C1856       C  0.89882594  0.87619243  0.65116236    -0.39900
C1857       C  0.90073781  0.89286472  0.62475474     0.19000
C1858       C  0.87792259  0.89290028  0.59990974     0.21600
C1859       C  0.85133809  0.87619181  0.59956540    -0.40400
C1860       C  0.84943315  0.85951133  0.62596752     0.20400
N1861       N  0.86507358  0.84166731  0.67294877    -0.33700
C1862       C  0.83748216  0.83034490  0.66209916    -0.11200
C1863       C  0.82695539  0.84093773  0.63291058    -0.30000
N1864       N  0.88521425  0.91060919  0.57767215    -0.46600
C1865       C  0.91286970  0.92186828  0.58847035    -0.05900
C1866       C  0.92331360  0.91134503  0.61772863    -0.23300
H1867       H  0.91670972  0.87619193  0.67052961     0.18500
H1868       H  0.83348971  0.87615949  0.58016613     0.17300
H1869       H  0.80584869  0.83563548  0.61862173     0.13600
H1870       H  0.94448045  0.91658869  0.63196599     0.13500
H1871       H  0.87817235  0.83741027  0.69403191     0.31600
H1872       H  0.87218039  0.91481375  0.55653213     0.34400
loop_ 
_geom_bond_atom_site_label_1 
_geom_bond_atom_site_label_2 
_geom_bond_distance 
_geom_bond_site_symmetry_2 
_ccdc_geom_bond_type 
N1            N2   1.321       .  A
N1            N7   1.316       .  A
N1        Mn1434   2.202       .  S
N2            C9   1.352       .  A
N3            N5   1.316       .  A
N3            N4   1.321       .  A
N3         Mn721   2.204       .  S
N4           C10   1.352       .  A
N5            N6   1.320       .  A
N5         Mn966   2.199       .  S
N6           C10   1.352       .  A
N7            N8   1.320       .  A
N7         Mn253   2.202       .  S
N8            C9   1.352       .  A
C9          C170   1.468       .  S
C10         C188   1.467       .  S
N11          N17   1.316       .  A
N11          N12   1.320       .  A
N11        Mn977   2.201       .  S
N12          C20   1.352       .  A
N13          N14   1.321       .  A
N13          N15   1.316       .  A
N13         Mn19   2.203   1_554  S
N14          C21   1.353       .  A
N15          N16   1.319       .  A
N15       Mn1445   2.198       .  S
N16          C21   1.351       .  A
N17          N18   1.320       .  A
N17        Mn487   2.202   1_554  S
N18          C20   1.352       .  A
Mn19        N705   2.204       .  S
Mn19        N241   2.202       .  S
Mn19        N485   2.202   1_556  S
Mn19      Cl1447   2.547       .  S
C20         C155   1.468       .  S
C21         C227   1.467       .  S
N22          N23   1.321       .  A
N22          N28   1.316       .  A
N22         Mn30   2.203       .  S
N23          C31   1.352       .  A
N24          N26   1.316       .  A
N24          N25   1.320       .  A
N24        Mn744   2.202       .  S
N25          C32   1.352       .  A
N26          N27   1.320       .  A
N26        Mn498   2.201       .  S
N27          C32   1.352       .  A
N28          N29   1.319       .  A
N28        Mn276   2.197       .  S
N29          C31   1.351       .  A
Mn30       N1405   2.202   1_445  S
Mn30        N941   2.199   1_455  S
Mn30        N494   2.201   1_545  S
Mn30       Cl277   2.548       .  S
C31         C116   1.467       .  S
C32         C209   1.468       .  S
N33          N34   1.320       .  A
N33          N39   1.316       .  A
N33        Mn509   2.200       .  S
N34          C44   1.352       .  A
N35          N36   1.320       .  A
N35          N37   1.316       .  A
N35         Mn42   2.200       .  S
N36          C45   1.352       .  A
N37          N38   1.320       .  A
N37         Mn41   2.201       .  S
N38          C45   1.352       .  A
N39          N40   1.320       .  A
N39        Mn510   2.201       .  S
N40          C44   1.352       .  A
Mn41        N947   2.201   1_455  S
Mn41       N1419   2.198   1_445  S
Mn41        N501   2.200   1_545  S
Mn41        Cl43   2.547   1_554  S
Mn42        N726   2.202   1_544  S
Mn42        N262   2.197   1_554  S
Mn42        N507   2.201   1_545  S
Mn42        Cl43   2.547   1_554  S
Cl43      Mn1423   2.547   1_455  S
Cl43       Mn264   2.548       .  S
C44         C137   1.467       .  S
C45          C98   1.467       .  S
N46          N47   1.319       .  A
N46          N52   1.316       .  A
N46         Mn75   2.198       .  S
N47          C54   1.351       .  A
N48          N50   1.316       .  A
N48          N49   1.320       .  A
N48         Mn64   2.202       .  S
N49          C55   1.352       .  A
N50          N51   1.320       .  A
N50         Mn75   2.201       .  S
N51          C55   1.352       .  A
N52          N53   1.321       .  A
N52         Mn64   2.203       .  S
N53          C54   1.353       .  A
C54         C224   1.467       .  S
C55         C152   1.468       .  S
N56          N62   1.316       .  A
N56          N57   1.320       .  A
N56         Mn86   2.199       .  S
N57          C65   1.351       .  A
N58          N59   1.320       .  A
N58          N60   1.316       .  A
N58         Mn64   2.201       .  S
N59          C66   1.352       .  A
N60          N61   1.321       .  A
N60         Mn86   2.203       .  S
N61          C66   1.352       .  A
N62          N63   1.321       .  A
N62         Mn64   2.204       .  S
N63          C65   1.352       .  A
Mn64        Cl88   2.547       .  S
C65         C191   1.467       .  S
C66         C173   1.468       .  S
N67          N68   1.321       .  A
N67          N73   1.316       .  A
N67         Mn75   2.201       .  S
N68          C76   1.352       .  A
N69          N71   1.316       .  A
N69          N70   1.321       .  A
N69         Mn87   2.201       .  S
N70          C77   1.352       .  A
N71          N72   1.320       .  A
N71         Mn75   2.199       .  S
N72          C77   1.352       .  A
N73          N74   1.320       .  A
N73         Mn87   2.200       .  S
N74          C76   1.352       .  A
Mn75        Cl88   2.547       .  S
C76         C101   1.467       .  S
C77         C134   1.467       .  S
N78          N79   1.320       .  A
N78          N84   1.316       .  A
N78         Mn86   2.201       .  S
N79          C89   1.352       .  A
N80          N81   1.319       .  A
N80          N82   1.316       .  A
N80         Mn87   2.198       .  S
N81          C90   1.351       .  A
N82          N83   1.321       .  A
N82         Mn86   2.203       .  S
N83          C90   1.352       .  A
N84          N85   1.320       .  A
N84         Mn87   2.202       .  S
N85          C89   1.352       .  A
Mn86        Cl88   2.548       .  S
Mn87        Cl88   2.547       .  S
C89         C206   1.468       .  S
C90         C119   1.467       .  S
C91          N97   1.343       .  A
C91          C96   1.385       .  A
C91          C92   1.402       .  A
C92          C93   1.402       .  A
C92         H103   1.082       .  S
C93         C102   1.377       .  A
C93          C94   1.385       .  A
C94         N100   1.343       .  A
C94          C95   1.403       .  A
C95          C96   1.402       .  A
C95         H104   1.082       .  S
C96          C99   1.377       .  A
N97          C98   1.355       .  A
N97         H107   1.045       .  S
C98          C99   1.394       .  A
C99         H105   1.082       .  S
N100        C101   1.355       .  A
N100        H108   1.045       .  S
C101        C102   1.394       .  A
C102        H106   1.082       .  S
C109        N115   1.343       .  A
C109        C114   1.385       .  A
C109        C110   1.402       .  A
C110        C111   1.402       .  A
C110        H121   1.082       .  S
C111        C120   1.376       .  A
C111        C112   1.385       .  A
C112        N118   1.343       .  A
C112        C113   1.402       .  A
C113        C114   1.402       .  A
C113        H122   1.082       .  S
C114        C117   1.377       .  A
N115        C116   1.354       .  A
N115        H125   1.045       .  S
C116        C117   1.394       .  A
C117        H123   1.082       .  S
N118        C119   1.355       .  A
N118        H126   1.045       .  S
C119        C120   1.394       .  A
C120        H124   1.082       .  S
C127        N133   1.343       .  A
C127        C132   1.385       .  A
C127        C128   1.403       .  A
C128        C129   1.402       .  A
C128        H139   1.082       .  S
C129        C138   1.377       .  A
C129        C130   1.385       .  A
C130        N136   1.343       .  A
C130        C131   1.402       .  A
C131        C132   1.401       .  A
C131        H140   1.082       .  S
C132        C135   1.376       .  A
N133        C134   1.355       .  A
N133        H143   1.045       .  S
C134        C135   1.394       .  A
C135        H141   1.082       .  S
N136        C137   1.354       .  A
N136        H144   1.045       .  S
C137        C138   1.394       .  A
C138        H142   1.082       .  S
C145        N151   1.343       .  A
C145        C150   1.385       .  A
C145        C146   1.403       .  A
C146        C147   1.402       .  A
C146        H157   1.082       .  S
C147        C156   1.377       .  A
C147        C148   1.385       .  A
C148        N154   1.343       .  A
C148        C149   1.403       .  A
C149        C150   1.402       .  A
C149        H158   1.082       .  S
C150        C153   1.377       .  A
N151        C152   1.355       .  A
N151        H161   1.045       .  S
C152        C153   1.394       .  A
C153        H159   1.082       .  S
N154        C155   1.355       .  A
N154        H162   1.045       .  S
C155        C156   1.394       .  A
C156        H160   1.082       .  S
C163        N169   1.343       .  A
C163        C168   1.385       .  A
C163        C164   1.403       .  A
C164        C165   1.402       .  A
C164        H175   1.082       .  S
C165        C174   1.377       .  A
C165        C166   1.385       .  A
C166        N172   1.343       .  A
C166        C167   1.403       .  A
C167        C168   1.402       .  A
C167        H176   1.082       .  S
C168        C171   1.377       .  A
N169        C170   1.355       .  A
N169        H179   1.045       .  S
C170        C171   1.394       .  A
C171        H177   1.082       .  S
N172        C173   1.355       .  A
N172        H180   1.045       .  S
C173        C174   1.394       .  A
C174        H178   1.082       .  S
C181        N187   1.343       .  A
C181        C186   1.385       .  A
C181        C182   1.402       .  A
C182        C183   1.402       .  A
C182        H193   1.082       .  S
C183        C192   1.376       .  A
C183        C184   1.385       .  A
C184        N190   1.343       .  A
C184        C185   1.403       .  A
C185        C186   1.402       .  A
C185        H194   1.082       .  S
C186        C189   1.377       .  A
N187        C188   1.355       .  A
N187        H197   1.045       .  S
C188        C189   1.394       .  A
C189        H195   1.082       .  S
N190        C191   1.355       .  A
N190        H198   1.045       .  S
C191        C192   1.394       .  A
C192        H196   1.082       .  S
C199        N205   1.343       .  A
C199        C204   1.385       .  A
C199        C200   1.403       .  A
C200        C201   1.402       .  A
C200        H211   1.082       .  S
C201        C210   1.377       .  A
C201        C202   1.385       .  A
C202        N208   1.343       .  A
C202        C203   1.403       .  A
C203        C204   1.402       .  A
C203        H212   1.082       .  S
C204        C207   1.377       .  A
N205        C206   1.355       .  A
N205        H215   1.045       .  S
C206        C207   1.394       .  A
C207        H213   1.082       .  S
N208        C209   1.355       .  A
N208        H216   1.045       .  S
C209        C210   1.394       .  A
C210        H214   1.082       .  S
C217        N223   1.343       .  A
C217        C222   1.385       .  A
C217        C218   1.402       .  A
C218        C219   1.402       .  A
C218        H229   1.082       .  S
C219        C228   1.376       .  A
C219        C220   1.385       .  A
C220        N226   1.343       .  A
C220        C221   1.402       .  A
C221        C222   1.402       .  A
C221        H230   1.082       .  S
C222        C225   1.376       .  A
N223        C224   1.355       .  A
N223        H233   1.045       .  S
C224        C225   1.394       .  A
C225        H231   1.082       .  S
N226        C227   1.355       .  A
N226        H234   1.045       .  S
C227        C228   1.394       .  A
C228        H232   1.082       .  S
N235        N236   1.321       .  A
N235        N241   1.316       .  A
N235      Mn1668   2.202       .  S
N236        C243   1.352       .  A
N237        N239   1.316       .  A
N237        N238   1.321       .  A
N237       Mn487   2.204       .  S
N238        C244   1.352       .  A
N239        N240   1.320       .  A
N239      Mn1200   2.199       .  S
N240        C244   1.352       .  A
N241        N242   1.320       .  A
N242        C243   1.352       .  A
C243        C404   1.468       .  S
C244        C422   1.467       .  S
N245        N251   1.316       .  A
N245        N246   1.320       .  A
N245      Mn1211   2.201       .  S
N246        C254   1.352       .  A
N247        N248   1.321       .  A
N247        N249   1.316       .  A
N247       Mn253   2.203       .  S
N248        C255   1.353       .  A
N249        N250   1.319       .  A
N249      Mn1679   2.198       .  S
N250        C255   1.351       .  A
N251        N252   1.320       .  A
N251       Mn721   2.202       .  S
N252        C254   1.352       .  A
Mn253       N471   2.204       .  S
Mn253       N719   2.202       .  S
Mn253     Cl1681   2.547       .  S
C254        C389   1.468       .  S
C255        C461   1.467       .  S
N256        N257   1.321       .  A
N256        N262   1.316       .  A
N256       Mn264   2.203       .  S
N257        C265   1.352       .  A
N258        N260   1.316       .  A
N258        N259   1.320       .  A
N258       Mn510   2.202   1_556  S
N259        C266   1.352       .  A
N260        N261   1.320       .  A
N260       Mn732   2.201       .  S
N261        C266   1.352       .  A
N262        N263   1.319       .  A
N263        C265   1.351       .  A
Mn264      N1639   2.202   1_445  S
Mn264      N1175   2.199   1_455  S
Mn264       N728   2.201   1_545  S
C265        C350   1.467       .  S
C266        C443   1.468       .  S
N267        N268   1.320       .  A
N267        N273   1.316       .  A
N267       Mn743   2.200       .  S
N268        C278   1.352       .  A
N269        N270   1.320       .  A
N269        N271   1.316       .  A
N269       Mn276   2.200       .  S
N270        C279   1.352       .  A
N271        N272   1.320       .  A
N271       Mn275   2.201       .  S
N272        C279   1.352       .  A
N273        N274   1.320       .  A
N273       Mn744   2.201       .  S
N274        C278   1.352       .  A
Mn275      N1181   2.201   1_455  S
Mn275      N1653   2.198   1_445  S
Mn275       N735   2.200   1_545  S
Mn275      Cl277   2.547       .  S
Mn276       N492   2.202   1_545  S
Mn276       N741   2.201   1_545  S
Mn276      Cl277   2.547       .  S
Cl277     Mn1657   2.547   1_455  S
C278        C371   1.467       .  S
C279        C332   1.467       .  S
N280        N281   1.319       .  A
N280        N286   1.316       .  A
N280       Mn309   2.198       .  S
N281        C288   1.351       .  A
N282        N284   1.316       .  A
N282        N283   1.320       .  A
N282       Mn298   2.202       .  S
N283        C289   1.352       .  A
N284        N285   1.320       .  A
N284       Mn309   2.201       .  S
N285        C289   1.352       .  A
N286        N287   1.321       .  A
N286       Mn298   2.203       .  S
N287        C288   1.353       .  A
C288        C458   1.467       .  S
C289        C386   1.468       .  S
N290        N296   1.316       .  A
N290        N291   1.320       .  A
N290       Mn320   2.199       .  S
N291        C299   1.351       .  A
N292        N293   1.320       .  A
N292        N294   1.316       .  A
N292       Mn298   2.201       .  S
N293        C300   1.352       .  A
N294        N295   1.321       .  A
N294       Mn320   2.203       .  S
N295        C300   1.352       .  A
N296        N297   1.321       .  A
N296       Mn298   2.204       .  S
N297        C299   1.352       .  A
Mn298      Cl322   2.547       .  S
C299        C425   1.467       .  S
C300        C407   1.468       .  S
N301        N302   1.321       .  A
N301        N307   1.316       .  A
N301       Mn309   2.201       .  S
N302        C310   1.352       .  A
N303        N305   1.316       .  A
N303        N304   1.321       .  A
N303       Mn321   2.201       .  S
N304        C311   1.352       .  A
N305        N306   1.320       .  A
N305       Mn309   2.199       .  S
N306        C311   1.352       .  A
N307        N308   1.320       .  A
N307       Mn321   2.200       .  S
N308        C310   1.352       .  A
Mn309      Cl322   2.547       .  S
C310        C335   1.467       .  S
C311        C368   1.467       .  S
N312        N313   1.320       .  A
N312        N318   1.316       .  A
N312       Mn320   2.201       .  S
N313        C323   1.352       .  A
N314        N315   1.319       .  A
N314        N316   1.316       .  A
N314       Mn321   2.198       .  S
N315        C324   1.351       .  A
N316        N317   1.321       .  A
N316       Mn320   2.203       .  S
N317        C324   1.352       .  A
N318        N319   1.320       .  A
N318       Mn321   2.202       .  S
N319        C323   1.352       .  A
Mn320      Cl322   2.548       .  S
Mn321      Cl322   2.547       .  S
C323        C440   1.468       .  S
C324        C353   1.467       .  S
C325        N331   1.343       .  A
C325        C330   1.385       .  A
C325        C326   1.402       .  A
C326        C327   1.402       .  A
C326        H337   1.082       .  S
C327        C336   1.377       .  A
C327        C328   1.385       .  A
C328        N334   1.343       .  A
C328        C329   1.403       .  A
C329        C330   1.402       .  A
C329        H338   1.082       .  S
C330        C333   1.377       .  A
N331        C332   1.355       .  A
N331        H341   1.045       .  S
C332        C333   1.394       .  A
C333        H339   1.082       .  S
N334        C335   1.355       .  A
N334        H342   1.045       .  S
C335        C336   1.394       .  A
C336        H340   1.082       .  S
C343        N349   1.343       .  A
C343        C348   1.385       .  A
C343        C344   1.402       .  A
C344        C345   1.402       .  A
C344        H355   1.082       .  S
C345        C354   1.376       .  A
C345        C346   1.385       .  A
C346        N352   1.343       .  A
C346        C347   1.402       .  A
C347        C348   1.402       .  A
C347        H356   1.082       .  S
C348        C351   1.377       .  A
N349        C350   1.354       .  A
N349        H359   1.045       .  S
C350        C351   1.394       .  A
C351        H357   1.082       .  S
N352        C353   1.355       .  A
N352        H360   1.045       .  S
C353        C354   1.394       .  A
C354        H358   1.082       .  S
C361        N367   1.343       .  A
C361        C366   1.385       .  A
C361        C362   1.403       .  A
C362        C363   1.402       .  A
C362        H373   1.082       .  S
C363        C372   1.377       .  A
C363        C364   1.385       .  A
C364        N370   1.343       .  A
C364        C365   1.402       .  A
C365        C366   1.401       .  A
C365        H374   1.082       .  S
C366        C369   1.376       .  A
N367        C368   1.355       .  A
N367        H377   1.045       .  S
C368        C369   1.394       .  A
C369        H375   1.082       .  S
N370        C371   1.354       .  A
N370        H378   1.045       .  S
C371        C372   1.394       .  A
C372        H376   1.082       .  S
C379        N385   1.343       .  A
C379        C384   1.385       .  A
C379        C380   1.403       .  A
C380        C381   1.402       .  A
C380        H391   1.082       .  S
C381        C390   1.377       .  A
C381        C382   1.385       .  A
C382        N388   1.343       .  A
C382        C383   1.403       .  A
C383        C384   1.402       .  A
C383        H392   1.082       .  S
C384        C387   1.377       .  A
N385        C386   1.355       .  A
N385        H395   1.045       .  S
C386        C387   1.394       .  A
C387        H393   1.082       .  S
N388        C389   1.355       .  A
N388        H396   1.045       .  S
C389        C390   1.394       .  A
C390        H394   1.082       .  S
C397        N403   1.343       .  A
C397        C402   1.385       .  A
C397        C398   1.403       .  A
C398        C399   1.402       .  A
C398        H409   1.082       .  S
C399        C408   1.377       .  A
C399        C400   1.385       .  A
C400        N406   1.343       .  A
C400        C401   1.403       .  A
C401        C402   1.402       .  A
C401        H410   1.082       .  S
C402        C405   1.377       .  A
N403        C404   1.355       .  A
N403        H413   1.045       .  S
C404        C405   1.394       .  A
C405        H411   1.082       .  S
N406        C407   1.355       .  A
N406        H414   1.045       .  S
C407        C408   1.394       .  A
C408        H412   1.082       .  S
C415        N421   1.343       .  A
C415        C420   1.385       .  A
C415        C416   1.402       .  A
C416        C417   1.402       .  A
C416        H427   1.082       .  S
C417        C426   1.376       .  A
C417        C418   1.385       .  A
C418        N424   1.343       .  A
C418        C419   1.403       .  A
C419        C420   1.402       .  A
C419        H428   1.082       .  S
C420        C423   1.377       .  A
N421        C422   1.355       .  A
N421        H431   1.045       .  S
C422        C423   1.394       .  A
C423        H429   1.082       .  S
N424        C425   1.355       .  A
N424        H432   1.045       .  S
C425        C426   1.394       .  A
C426        H430   1.082       .  S
C433        N439   1.343       .  A
C433        C438   1.385       .  A
C433        C434   1.403       .  A
C434        C435   1.402       .  A
C434        H445   1.082       .  S
C435        C444   1.377       .  A
C435        C436   1.385       .  A
C436        N442   1.343       .  A
C436        C437   1.403       .  A
C437        C438   1.402       .  A
C437        H446   1.082       .  S
C438        C441   1.377       .  A
N439        C440   1.355       .  A
N439        H449   1.045       .  S
C440        C441   1.394       .  A
C441        H447   1.082       .  S
N442        C443   1.355       .  A
N442        H450   1.045       .  S
C443        C444   1.394       .  A
C444        H448   1.082       .  S
C451        N457   1.343       .  A
C451        C456   1.385       .  A
C451        C452   1.402       .  A
C452        C453   1.402       .  A
C452        H463   1.082       .  S
C453        C462   1.376       .  A
C453        C454   1.385       .  A
C454        N460   1.343       .  A
C454        C455   1.402       .  A
C455        C456   1.402       .  A
C455        H464   1.082       .  S
C456        C459   1.376       .  A
N457        C458   1.355       .  A
N457        H467   1.045       .  S
C458        C459   1.394       .  A
C459        H465   1.082       .  S
N460        C461   1.355       .  A
N460        H468   1.045       .  S
C461        C462   1.394       .  A
C462        H466   1.082       .  S
N469        N470   1.321       .  A
N469        N475   1.316       .  A
N469       Mn966   2.202   1_565  S
N470        C477   1.352       .  A
N471        N473   1.316       .  A
N471        N472   1.321       .  A
N472        C478   1.352       .  A
N473        N474   1.320       .  A
N473      Mn1434   2.199       .  S
N474        C478   1.352       .  A
N475        N476   1.320       .  A
N475       Mn721   2.202   1_565  S
N476        C477   1.352       .  A
C477        C638   1.468       .  S
C478        C656   1.467       .  S
N479        N485   1.316       .  A
N479        N480   1.320       .  A
N479      Mn1445   2.201       .  S
N480        C488   1.352       .  A
N481        N482   1.321       .  A
N481        N483   1.316       .  A
N481       Mn487   2.203   1_564  S
N482        C489   1.353       .  A
N483        N484   1.319       .  A
N483       Mn977   2.198   1_565  S
N484        C489   1.351       .  A
N485        N486   1.320       .  A
N486        C488   1.352       .  A
Mn487       N709   2.202   1_545  S
Mn487      Cl979   2.547       .  S
C488        C623   1.468       .  S
C489        C695   1.467       .  S
N490        N491   1.321       .  A
N490        N496   1.316       .  A
N490       Mn498   2.203       .  S
N491        C499   1.352       .  A
N492        N494   1.316       .  A
N492        N493   1.320       .  A
N493        C500   1.352       .  A
N494        N495   1.320       .  A
N495        C500   1.352       .  A
N496        N497   1.319       .  A
N496       Mn744   2.197       .  S
N497        C499   1.351       .  A
Mn498       N937   2.202   1_455  S
Mn498      N1409   2.199   1_455  S
Mn498      Cl745   2.548       .  S
C499        C584   1.467       .  S
C500        C677   1.468       .  S
N501        N502   1.320       .  A
N501        N507   1.316       .  A
N502        C512   1.352       .  A
N503        N504   1.320       .  A
N503        N505   1.316       .  A
N503       Mn510   2.200       .  S
N504        C513   1.352       .  A
N505        N506   1.320       .  A
N505       Mn509   2.201       .  S
N506        C513   1.352       .  A
N507        N508   1.320       .  A
N508        C512   1.352       .  A
Mn509      N1415   2.201   1_455  S
Mn509       N951   2.198   1_455  S
Mn509      Cl511   2.547   1_554  S
Mn510       N730   2.197   1_554  S
Mn510      Cl511   2.547   1_554  S
Cl511      Mn955   2.547   1_455  S
Cl511      Mn732   2.548       .  S
C512        C605   1.467       .  S
C513        C566   1.467       .  S
N514        N515   1.319       .  A
N514        N520   1.316       .  A
N514       Mn543   2.198       .  S
N515        C522   1.351       .  A
N516        N518   1.316       .  A
N516        N517   1.320       .  A
N516       Mn532   2.202       .  S
N517        C523   1.352       .  A
N518        N519   1.320       .  A
N518       Mn543   2.201       .  S
N519        C523   1.352       .  A
N520        N521   1.321       .  A
N520       Mn532   2.203       .  S
N521        C522   1.353       .  A
C522        C692   1.467       .  S
C523        C620   1.468       .  S
N524        N530   1.316       .  A
N524        N525   1.320       .  A
N524       Mn554   2.199       .  S
N525        C533   1.351       .  A
N526        N527   1.320       .  A
N526        N528   1.316       .  A
N526       Mn532   2.201       .  S
N527        C534   1.352       .  A
N528        N529   1.321       .  A
N528       Mn554   2.203       .  S
N529        C534   1.352       .  A
N530        N531   1.321       .  A
N530       Mn532   2.204       .  S
N531        C533   1.352       .  A
Mn532      Cl556   2.547       .  S
C533        C659   1.467       .  S
C534        C641   1.468       .  S
N535        N536   1.321       .  A
N535        N541   1.316       .  A
N535       Mn543   2.201       .  S
N536        C544   1.352       .  A
N537        N539   1.316       .  A
N537        N538   1.321       .  A
N537       Mn555   2.201       .  S
N538        C545   1.352       .  A
N539        N540   1.320       .  A
N539       Mn543   2.199       .  S
N540        C545   1.352       .  A
N541        N542   1.320       .  A
N541       Mn555   2.200       .  S
N542        C544   1.352       .  A
Mn543      Cl556   2.547       .  S
C544        C569   1.467       .  S
C545        C602   1.467       .  S
N546        N547   1.320       .  A
N546        N552   1.316       .  A
N546       Mn554   2.201       .  S
N547        C557   1.352       .  A
N548        N549   1.319       .  A
N548        N550   1.316       .  A
N548       Mn555   2.198       .  S
N549        C558   1.351       .  A
N550        N551   1.321       .  A
N550       Mn554   2.203       .  S
N551        C558   1.352       .  A
N552        N553   1.320       .  A
N552       Mn555   2.202       .  S
N553        C557   1.352       .  A
Mn554      Cl556   2.548       .  S
Mn555      Cl556   2.547       .  S
C557        C674   1.468       .  S
C558        C587   1.467       .  S
C559        N565   1.343       .  A
C559        C564   1.385       .  A
C559        C560   1.402       .  A
C560        C561   1.402       .  A
C560        H571   1.082       .  S
C561        C570   1.377       .  A
C561        C562   1.385       .  A
C562        N568   1.343       .  A
C562        C563   1.403       .  A
C563        C564   1.402       .  A
C563        H572   1.082       .  S
C564        C567   1.377       .  A
N565        C566   1.355       .  A
N565        H575   1.045       .  S
C566        C567   1.394       .  A
C567        H573   1.082       .  S
N568        C569   1.355       .  A
N568        H576   1.045       .  S
C569        C570   1.394       .  A
C570        H574   1.082       .  S
C577        N583   1.343       .  A
C577        C582   1.385       .  A
C577        C578   1.402       .  A
C578        C579   1.402       .  A
C578        H589   1.082       .  S
C579        C588   1.376       .  A
C579        C580   1.385       .  A
C580        N586   1.343       .  A
C580        C581   1.402       .  A
C581        C582   1.402       .  A
C581        H590   1.082       .  S
C582        C585   1.377       .  A
N583        C584   1.354       .  A
N583        H593   1.045       .  S
C584        C585   1.394       .  A
C585        H591   1.082       .  S
N586        C587   1.355       .  A
N586        H594   1.045       .  S
C587        C588   1.394       .  A
C588        H592   1.082       .  S
C595        N601   1.343       .  A
C595        C600   1.385       .  A
C595        C596   1.403       .  A
C596        C597   1.402       .  A
C596        H607   1.082       .  S
C597        C606   1.377       .  A
C597        C598   1.385       .  A
C598        N604   1.343       .  A
C598        C599   1.402       .  A
C599        C600   1.401       .  A
C599        H608   1.082       .  S
C600        C603   1.376       .  A
N601        C602   1.355       .  A
N601        H611   1.045       .  S
C602        C603   1.394       .  A
C603        H609   1.082       .  S
N604        C605   1.354       .  A
N604        H612   1.045       .  S
C605        C606   1.394       .  A
C606        H610   1.082       .  S
C613        N619   1.343       .  A
C613        C618   1.385       .  A
C613        C614   1.403       .  A
C614        C615   1.402       .  A
C614        H625   1.082       .  S
C615        C624   1.377       .  A
C615        C616   1.385       .  A
C616        N622   1.343       .  A
C616        C617   1.403       .  A
C617        C618   1.402       .  A
C617        H626   1.082       .  S
C618        C621   1.377       .  A
N619        C620   1.355       .  A
N619        H629   1.045       .  S
C620        C621   1.394       .  A
C621        H627   1.082       .  S
N622        C623   1.355       .  A
N622        H630   1.045       .  S
C623        C624   1.394       .  A
C624        H628   1.082       .  S
C631        N637   1.343       .  A
C631        C636   1.385       .  A
C631        C632   1.403       .  A
C632        C633   1.402       .  A
C632        H643   1.082       .  S
C633        C642   1.377       .  A
C633        C634   1.385       .  A
C634        N640   1.343       .  A
C634        C635   1.403       .  A
C635        C636   1.402       .  A
C635        H644   1.082       .  S
C636        C639   1.377       .  A
N637        C638   1.355       .  A
N637        H647   1.045       .  S
C638        C639   1.394       .  A
C639        H645   1.082       .  S
N640        C641   1.355       .  A
N640        H648   1.045       .  S
C641        C642   1.394       .  A
C642        H646   1.082       .  S
C649        N655   1.343       .  A
C649        C654   1.385       .  A
C649        C650   1.402       .  A
C650        C651   1.402       .  A
C650        H661   1.082       .  S
C651        C660   1.376       .  A
C651        C652   1.385       .  A
C652        N658   1.343       .  A
C652        C653   1.403       .  A
C653        C654   1.402       .  A
C653        H662   1.082       .  S
C654        C657   1.377       .  A
N655        C656   1.355       .  A
N655        H665   1.045       .  S
C656        C657   1.394       .  A
C657        H663   1.082       .  S
N658        C659   1.355       .  A
N658        H666   1.045       .  S
C659        C660   1.394       .  A
C660        H664   1.082       .  S
C667        N673   1.343       .  A
C667        C672   1.385       .  A
C667        C668   1.403       .  A
C668        C669   1.402       .  A
C668        H679   1.082       .  S
C669        C678   1.377       .  A
C669        C670   1.385       .  A
C670        N676   1.343       .  A
C670        C671   1.403       .  A
C671        C672   1.402       .  A
C671        H680   1.082       .  S
C672        C675   1.377       .  A
N673        C674   1.355       .  A
N673        H683   1.045       .  S
C674        C675   1.394       .  A
C675        H681   1.082       .  S
N676        C677   1.355       .  A
N676        H684   1.045       .  S
C677        C678   1.394       .  A
C678        H682   1.082       .  S
C685        N691   1.343       .  A
C685        C690   1.385       .  A
C685        C686   1.402       .  A
C686        C687   1.402       .  A
C686        H697   1.082       .  S
C687        C696   1.376       .  A
C687        C688   1.385       .  A
C688        N694   1.343       .  A
C688        C689   1.402       .  A
C689        C690   1.402       .  A
C689        H698   1.082       .  S
C690        C693   1.376       .  A
N691        C692   1.355       .  A
N691        H701   1.045       .  S
C692        C693   1.394       .  A
C693        H699   1.082       .  S
N694        C695   1.355       .  A
N694        H702   1.045       .  S
C695        C696   1.394       .  A
C696        H700   1.082       .  S
N703        N704   1.321       .  A
N703        N709   1.316       .  A
N703      Mn1200   2.202   1_565  S
N704        C711   1.352       .  A
N705        N707   1.316       .  A
N705        N706   1.321       .  A
N706        C712   1.352       .  A
N707        N708   1.320       .  A
N707      Mn1668   2.199       .  S
N708        C712   1.352       .  A
N709        N710   1.320       .  A
N710        C711   1.352       .  A
C711        C872   1.468       .  S
C712        C890   1.467       .  S
N713        N719   1.316       .  A
N713        N714   1.320       .  A
N713      Mn1679   2.201       .  S
N714        C722   1.352       .  A
N715        N716   1.321       .  A
N715        N717   1.316       .  A
N715       Mn721   2.203   1_565  S
N716        C723   1.353       .  A
N717        N718   1.319       .  A
N717      Mn1211   2.198   1_565  S
N718        C723   1.351       .  A
N719        N720   1.320       .  A
N720        C722   1.352       .  A
Mn721     Cl1213   2.547       .  S
C722        C857   1.468       .  S
C723        C929   1.467       .  S
N724        N725   1.321       .  A
N724        N730   1.316       .  A
N724       Mn732   2.203       .  S
N725        C733   1.352       .  A
N726        N728   1.316       .  A
N726        N727   1.320       .  A
N727        C734   1.352       .  A
N728        N729   1.320       .  A
N729        C734   1.352       .  A
N730        N731   1.319       .  A
N731        C733   1.351       .  A
Mn732      N1171   2.202   1_455  S
Mn732      N1643   2.199   1_455  S
C733        C818   1.467       .  S
C734        C911   1.468       .  S
N735        N736   1.320       .  A
N735        N741   1.316       .  A
N736        C746   1.352       .  A
N737        N738   1.320       .  A
N737        N739   1.316       .  A
N737       Mn744   2.200       .  S
N738        C747   1.352       .  A
N739        N740   1.320       .  A
N739       Mn743   2.201       .  S
N740        C747   1.352       .  A
N741        N742   1.320       .  A
N742        C746   1.352       .  A
Mn743      N1649   2.201   1_455  S
Mn743      N1185   2.198   1_455  S
Mn743      Cl745   2.547       .  S
Mn744      Cl745   2.547       .  S
Cl745     Mn1189   2.547   1_455  S
C746        C839   1.467       .  S
C747        C800   1.467       .  S
N748        N749   1.319       .  A
N748        N754   1.316       .  A
N748       Mn777   2.198       .  S
N749        C756   1.351       .  A
N750        N752   1.316       .  A
N750        N751   1.320       .  A
N750       Mn766   2.202       .  S
N751        C757   1.352       .  A
N752        N753   1.320       .  A
N752       Mn777   2.201       .  S
N753        C757   1.352       .  A
N754        N755   1.321       .  A
N754       Mn766   2.203       .  S
N755        C756   1.353       .  A
C756        C926   1.467       .  S
C757        C854   1.468       .  S
N758        N764   1.316       .  A
N758        N759   1.320       .  A
N758       Mn788   2.199       .  S
N759        C767   1.351       .  A
N760        N761   1.320       .  A
N760        N762   1.316       .  A
N760       Mn766   2.201       .  S
N761        C768   1.352       .  A
N762        N763   1.321       .  A
N762       Mn788   2.203       .  S
N763        C768   1.352       .  A
N764        N765   1.321       .  A
N764       Mn766   2.204       .  S
N765        C767   1.352       .  A
Mn766      Cl790   2.547       .  S
C767        C893   1.467       .  S
C768        C875   1.468       .  S
N769        N770   1.321       .  A
N769        N775   1.316       .  A
N769       Mn777   2.201       .  S
N770        C778   1.352       .  A
N771        N773   1.316       .  A
N771        N772   1.321       .  A
N771       Mn789   2.201       .  S
N772        C779   1.352       .  A
N773        N774   1.320       .  A
N773       Mn777   2.199       .  S
N774        C779   1.352       .  A
N775        N776   1.320       .  A
N775       Mn789   2.200       .  S
N776        C778   1.352       .  A
Mn777      Cl790   2.547       .  S
C778        C803   1.467       .  S
C779        C836   1.467       .  S
N780        N781   1.320       .  A
N780        N786   1.316       .  A
N780       Mn788   2.201       .  S
N781        C791   1.352       .  A
N782        N783   1.319       .  A
N782        N784   1.316       .  A
N782       Mn789   2.198       .  S
N783        C792   1.351       .  A
N784        N785   1.321       .  A
N784       Mn788   2.203       .  S
N785        C792   1.352       .  A
N786        N787   1.320       .  A
N786       Mn789   2.202       .  S
N787        C791   1.352       .  A
Mn788      Cl790   2.548       .  S
Mn789      Cl790   2.547       .  S
C791        C908   1.468       .  S
C792        C821   1.467       .  S
C793        N799   1.343       .  A
C793        C798   1.385       .  A
C793        C794   1.402       .  A
C794        C795   1.402       .  A
C794        H805   1.082       .  S
C795        C804   1.377       .  A
C795        C796   1.385       .  A
C796        N802   1.343       .  A
C796        C797   1.403       .  A
C797        C798   1.402       .  A
C797        H806   1.082       .  S
C798        C801   1.377       .  A
N799        C800   1.355       .  A
N799        H809   1.045       .  S
C800        C801   1.394       .  A
C801        H807   1.082       .  S
N802        C803   1.355       .  A
N802        H810   1.045       .  S
C803        C804   1.394       .  A
C804        H808   1.082       .  S
C811        N817   1.343       .  A
C811        C816   1.385       .  A
C811        C812   1.402       .  A
C812        C813   1.402       .  A
C812        H823   1.082       .  S
C813        C822   1.376       .  A
C813        C814   1.385       .  A
C814        N820   1.343       .  A
C814        C815   1.402       .  A
C815        C816   1.402       .  A
C815        H824   1.082       .  S
C816        C819   1.377       .  A
N817        C818   1.354       .  A
N817        H827   1.045       .  S
C818        C819   1.394       .  A
C819        H825   1.082       .  S
N820        C821   1.355       .  A
N820        H828   1.045       .  S
C821        C822   1.394       .  A
C822        H826   1.082       .  S
C829        N835   1.343       .  A
C829        C834   1.385       .  A
C829        C830   1.403       .  A
C830        C831   1.402       .  A
C830        H841   1.082       .  S
C831        C840   1.377       .  A
C831        C832   1.385       .  A
C832        N838   1.343       .  A
C832        C833   1.402       .  A
C833        C834   1.401       .  A
C833        H842   1.082       .  S
C834        C837   1.376       .  A
N835        C836   1.355       .  A
N835        H845   1.045       .  S
C836        C837   1.394       .  A
C837        H843   1.082       .  S
N838        C839   1.354       .  A
N838        H846   1.045       .  S
C839        C840   1.394       .  A
C840        H844   1.082       .  S
C847        N853   1.343       .  A
C847        C852   1.385       .  A
C847        C848   1.403       .  A
C848        C849   1.402       .  A
C848        H859   1.082       .  S
C849        C858   1.377       .  A
C849        C850   1.385       .  A
C850        N856   1.343       .  A
C850        C851   1.403       .  A
C851        C852   1.402       .  A
C851        H860   1.082       .  S
C852        C855   1.377       .  A
N853        C854   1.355       .  A
N853        H863   1.045       .  S
C854        C855   1.394       .  A
C855        H861   1.082       .  S
N856        C857   1.355       .  A
N856        H864   1.045       .  S
C857        C858   1.394       .  A
C858        H862   1.082       .  S
C865        N871   1.343       .  A
C865        C870   1.385       .  A
C865        C866   1.403       .  A
C866        C867   1.402       .  A
C866        H877   1.082       .  S
C867        C876   1.377       .  A
C867        C868   1.385       .  A
C868        N874   1.343       .  A
C868        C869   1.403       .  A
C869        C870   1.402       .  A
C869        H878   1.082       .  S
C870        C873   1.377       .  A
N871        C872   1.355       .  A
N871        H881   1.045       .  S
C872        C873   1.394       .  A
C873        H879   1.082       .  S
N874        C875   1.355       .  A
N874        H882   1.045       .  S
C875        C876   1.394       .  A
C876        H880   1.082       .  S
C883        N889   1.343       .  A
C883        C888   1.385       .  A
C883        C884   1.402       .  A
C884        C885   1.402       .  A
C884        H895   1.082       .  S
C885        C894   1.376       .  A
C885        C886   1.385       .  A
C886        N892   1.343       .  A
C886        C887   1.403       .  A
C887        C888   1.402       .  A
C887        H896   1.082       .  S
C888        C891   1.377       .  A
N889        C890   1.355       .  A
N889        H899   1.045       .  S
C890        C891   1.394       .  A
C891        H897   1.082       .  S
N892        C893   1.355       .  A
N892        H900   1.045       .  S
C893        C894   1.394       .  A
C894        H898   1.082       .  S
C901        N907   1.343       .  A
C901        C906   1.385       .  A
C901        C902   1.403       .  A
C902        C903   1.402       .  A
C902        H913   1.082       .  S
C903        C912   1.377       .  A
C903        C904   1.385       .  A
C904        N910   1.343       .  A
C904        C905   1.403       .  A
C905        C906   1.402       .  A
C905        H914   1.082       .  S
C906        C909   1.377       .  A
N907        C908   1.355       .  A
N907        H917   1.045       .  S
C908        C909   1.394       .  A
C909        H915   1.082       .  S
N910        C911   1.355       .  A
N910        H918   1.045       .  S
C911        C912   1.394       .  A
C912        H916   1.082       .  S
C919        N925   1.343       .  A
C919        C924   1.385       .  A
C919        C920   1.402       .  A
C920        C921   1.402       .  A
C920        H931   1.082       .  S
C921        C930   1.376       .  A
C921        C922   1.385       .  A
C922        N928   1.343       .  A
C922        C923   1.402       .  A
C923        C924   1.402       .  A
C923        H932   1.082       .  S
C924        C927   1.376       .  A
N925        C926   1.355       .  A
N925        H935   1.045       .  S
C926        C927   1.394       .  A
C927        H933   1.082       .  S
N928        C929   1.355       .  A
N928        H936   1.045       .  S
C929        C930   1.394       .  A
C930        H934   1.082       .  S
N937        N938   1.321       .  A
N937        N943   1.316       .  A
N938        C945   1.352       .  A
N939        N941   1.316       .  A
N939        N940   1.321       .  A
N939      Mn1657   2.204       .  S
N940        C946   1.352       .  A
N941        N942   1.320       .  A
N942        C946   1.352       .  A
N943        N944   1.320       .  A
N943      Mn1189   2.202       .  S
N944        C945   1.352       .  A
C945       C1106   1.468       .  S
C946       C1124   1.467       .  S
N947        N953   1.316       .  A
N947        N948   1.320       .  A
N948        C956   1.352       .  A
N949        N950   1.321       .  A
N949        N951   1.316       .  A
N949       Mn955   2.203   1_554  S
N950        C957   1.353       .  A
N951        N952   1.319       .  A
N952        C957   1.351       .  A
N953        N954   1.320       .  A
N953      Mn1423   2.202   1_554  S
N954        C956   1.352       .  A
Mn955      N1641   2.204       .  S
Mn955      N1177   2.202       .  S
Mn955      N1421   2.202   1_556  S
C956       C1091   1.468       .  S
C957       C1163   1.467       .  S
N958        N959   1.321       .  A
N958        N964   1.316       .  A
N958       Mn966   2.203       .  S
N959        C967   1.352       .  A
N960        N962   1.316       .  A
N960        N961   1.320       .  A
N960      Mn1680   2.202       .  S
N961        C968   1.352       .  A
N962        N963   1.320       .  A
N962      Mn1434   2.201       .  S
N963        C968   1.352       .  A
N964        N965   1.319       .  A
N964      Mn1212   2.197       .  S
N965        C967   1.351       .  A
Mn966      N1430   2.201   1_545  S
Mn966     Cl1213   2.548       .  S
C967       C1052   1.467       .  S
C968       C1145   1.468       .  S
N969        N970   1.320       .  A
N969        N975   1.316       .  A
N969      Mn1445   2.200       .  S
N970        C980   1.352       .  A
N971        N972   1.320       .  A
N971        N973   1.316       .  A
N971       Mn978   2.200       .  S
N972        C981   1.352       .  A
N973        N974   1.320       .  A
N973       Mn977   2.201       .  S
N974        C981   1.352       .  A
N975        N976   1.320       .  A
N975      Mn1446   2.201       .  S
N976        C980   1.352       .  A
Mn977      N1437   2.200   1_545  S
Mn977      Cl979   2.547   1_554  S
Mn978      N1662   2.202   1_544  S
Mn978      N1198   2.197   1_554  S
Mn978      N1443   2.201   1_545  S
Mn978      Cl979   2.547   1_554  S
Cl979     Mn1200   2.548       .  S
C980       C1073   1.467       .  S
C981       C1034   1.467       .  S
N982        N983   1.319       .  A
N982        N988   1.316       .  A
N982      Mn1011   2.198       .  S
N983        C990   1.351       .  A
N984        N986   1.316       .  A
N984        N985   1.320       .  A
N984      Mn1000   2.202       .  S
N985        C991   1.352       .  A
N986        N987   1.320       .  A
N986      Mn1011   2.201       .  S
N987        C991   1.352       .  A
N988        N989   1.321       .  A
N988      Mn1000   2.203       .  S
N989        C990   1.353       .  A
C990       C1160   1.467       .  S
C991       C1088   1.468       .  S
N992        N998   1.316       .  A
N992        N993   1.320       .  A
N992      Mn1022   2.199       .  S
N993       C1001   1.351       .  A
N994        N995   1.320       .  A
N994        N996   1.316       .  A
N994      Mn1000   2.201       .  S
N995       C1002   1.352       .  A
N996        N997   1.321       .  A
N996      Mn1022   2.203       .  S
N997       C1002   1.352       .  A
N998        N999   1.321       .  A
N998      Mn1000   2.204       .  S
N999       C1001   1.352       .  A
Mn1000    Cl1024   2.547       .  S
C1001      C1127   1.467       .  S
C1002      C1109   1.468       .  S
N1003      N1004   1.321       .  A
N1003      N1009   1.316       .  A
N1003     Mn1011   2.201       .  S
N1004      C1012   1.352       .  A
N1005      N1007   1.316       .  A
N1005      N1006   1.321       .  A
N1005     Mn1023   2.201       .  S
N1006      C1013   1.352       .  A
N1007      N1008   1.320       .  A
N1007     Mn1011   2.199       .  S
N1008      C1013   1.352       .  A
N1009      N1010   1.320       .  A
N1009     Mn1023   2.200       .  S
N1010      C1012   1.352       .  A
Mn1011    Cl1024   2.547       .  S
C1012      C1037   1.467       .  S
C1013      C1070   1.467       .  S
N1014      N1015   1.320       .  A
N1014      N1020   1.316       .  A
N1014     Mn1022   2.201       .  S
N1015      C1025   1.352       .  A
N1016      N1017   1.319       .  A
N1016      N1018   1.316       .  A
N1016     Mn1023   2.198       .  S
N1017      C1026   1.351       .  A
N1018      N1019   1.321       .  A
N1018     Mn1022   2.203       .  S
N1019      C1026   1.352       .  A
N1020      N1021   1.320       .  A
N1020     Mn1023   2.202       .  S
N1021      C1025   1.352       .  A
Mn1022    Cl1024   2.548       .  S
Mn1023    Cl1024   2.547       .  S
C1025      C1142   1.468       .  S
C1026      C1055   1.467       .  S
C1027      N1033   1.343       .  A
C1027      C1032   1.385       .  A
C1027      C1028   1.402       .  A
C1028      C1029   1.402       .  A
C1028      H1039   1.082       .  S
C1029      C1038   1.377       .  A
C1029      C1030   1.385       .  A
C1030      N1036   1.343       .  A
C1030      C1031   1.403       .  A
C1031      C1032   1.402       .  A
C1031      H1040   1.082       .  S
C1032      C1035   1.377       .  A
N1033      C1034   1.355       .  A
N1033      H1043   1.045       .  S
C1034      C1035   1.394       .  A
C1035      H1041   1.082       .  S
N1036      C1037   1.355       .  A
N1036      H1044   1.045       .  S
C1037      C1038   1.394       .  A
C1038      H1042   1.082       .  S
C1045      N1051   1.343       .  A
C1045      C1050   1.385       .  A
C1045      C1046   1.402       .  A
C1046      C1047   1.402       .  A
C1046      H1057   1.082       .  S
C1047      C1056   1.376       .  A
C1047      C1048   1.385       .  A
C1048      N1054   1.343       .  A
C1048      C1049   1.402       .  A
C1049      C1050   1.402       .  A
C1049      H1058   1.082       .  S
C1050      C1053   1.377       .  A
N1051      C1052   1.354       .  A
N1051      H1061   1.045       .  S
C1052      C1053   1.394       .  A
C1053      H1059   1.082       .  S
N1054      C1055   1.355       .  A
N1054      H1062   1.045       .  S
C1055      C1056   1.394       .  A
C1056      H1060   1.082       .  S
C1063      N1069   1.343       .  A
C1063      C1068   1.385       .  A
C1063      C1064   1.403       .  A
C1064      C1065   1.402       .  A
C1064      H1075   1.082       .  S
C1065      C1074   1.377       .  A
C1065      C1066   1.385       .  A
C1066      N1072   1.343       .  A
C1066      C1067   1.402       .  A
C1067      C1068   1.401       .  A
C1067      H1076   1.082       .  S
C1068      C1071   1.376       .  A
N1069      C1070   1.355       .  A
N1069      H1079   1.045       .  S
C1070      C1071   1.394       .  A
C1071      H1077   1.082       .  S
N1072      C1073   1.354       .  A
N1072      H1080   1.045       .  S
C1073      C1074   1.394       .  A
C1074      H1078   1.082       .  S
C1081      N1087   1.343       .  A
C1081      C1086   1.385       .  A
C1081      C1082   1.403       .  A
C1082      C1083   1.402       .  A
C1082      H1093   1.082       .  S
C1083      C1092   1.377       .  A
C1083      C1084   1.385       .  A
C1084      N1090   1.343       .  A
C1084      C1085   1.403       .  A
C1085      C1086   1.402       .  A
C1085      H1094   1.082       .  S
C1086      C1089   1.377       .  A
N1087      C1088   1.355       .  A
N1087      H1097   1.045       .  S
C1088      C1089   1.394       .  A
C1089      H1095   1.082       .  S
N1090      C1091   1.355       .  A
N1090      H1098   1.045       .  S
C1091      C1092   1.394       .  A
C1092      H1096   1.082       .  S
C1099      N1105   1.343       .  A
C1099      C1104   1.385       .  A
C1099      C1100   1.403       .  A
C1100      C1101   1.402       .  A
C1100      H1111   1.082       .  S
C1101      C1110   1.377       .  A
C1101      C1102   1.385       .  A
C1102      N1108   1.343       .  A
C1102      C1103   1.403       .  A
C1103      C1104   1.402       .  A
C1103      H1112   1.082       .  S
C1104      C1107   1.377       .  A
N1105      C1106   1.355       .  A
N1105      H1115   1.045       .  S
C1106      C1107   1.394       .  A
C1107      H1113   1.082       .  S
N1108      C1109   1.355       .  A
N1108      H1116   1.045       .  S
C1109      C1110   1.394       .  A
C1110      H1114   1.082       .  S
C1117      N1123   1.343       .  A
C1117      C1122   1.385       .  A
C1117      C1118   1.402       .  A
C1118      C1119   1.402       .  A
C1118      H1129   1.082       .  S
C1119      C1128   1.376       .  A
C1119      C1120   1.385       .  A
C1120      N1126   1.343       .  A
C1120      C1121   1.403       .  A
C1121      C1122   1.402       .  A
C1121      H1130   1.082       .  S
C1122      C1125   1.377       .  A
N1123      C1124   1.355       .  A
N1123      H1133   1.045       .  S
C1124      C1125   1.394       .  A
C1125      H1131   1.082       .  S
N1126      C1127   1.355       .  A
N1126      H1134   1.045       .  S
C1127      C1128   1.394       .  A
C1128      H1132   1.082       .  S
C1135      N1141   1.343       .  A
C1135      C1140   1.385       .  A
C1135      C1136   1.403       .  A
C1136      C1137   1.402       .  A
C1136      H1147   1.082       .  S
C1137      C1146   1.377       .  A
C1137      C1138   1.385       .  A
C1138      N1144   1.343       .  A
C1138      C1139   1.403       .  A
C1139      C1140   1.402       .  A
C1139      H1148   1.082       .  S
C1140      C1143   1.377       .  A
N1141      C1142   1.355       .  A
N1141      H1151   1.045       .  S
C1142      C1143   1.394       .  A
C1143      H1149   1.082       .  S
N1144      C1145   1.355       .  A
N1144      H1152   1.045       .  S
C1145      C1146   1.394       .  A
C1146      H1150   1.082       .  S
C1153      N1159   1.343       .  A
C1153      C1158   1.385       .  A
C1153      C1154   1.402       .  A
C1154      C1155   1.402       .  A
C1154      H1165   1.082       .  S
C1155      C1164   1.376       .  A
C1155      C1156   1.385       .  A
C1156      N1162   1.343       .  A
C1156      C1157   1.402       .  A
C1157      C1158   1.402       .  A
C1157      H1166   1.082       .  S
C1158      C1161   1.376       .  A
N1159      C1160   1.355       .  A
N1159      H1169   1.045       .  S
C1160      C1161   1.394       .  A
C1161      H1167   1.082       .  S
N1162      C1163   1.355       .  A
N1162      H1170   1.045       .  S
C1163      C1164   1.394       .  A
C1164      H1168   1.082       .  S
N1171      N1172   1.321       .  A
N1171      N1177   1.316       .  A
N1172      C1179   1.352       .  A
N1173      N1175   1.316       .  A
N1173      N1174   1.321       .  A
N1173     Mn1423   2.204       .  S
N1174      C1180   1.352       .  A
N1175      N1176   1.320       .  A
N1176      C1180   1.352       .  A
N1177      N1178   1.320       .  A
N1178      C1179   1.352       .  A
C1179      C1340   1.468       .  S
C1180      C1358   1.467       .  S
N1181      N1187   1.316       .  A
N1181      N1182   1.320       .  A
N1182      C1190   1.352       .  A
N1183      N1184   1.321       .  A
N1183      N1185   1.316       .  A
N1183     Mn1189   2.203       .  S
N1184      C1191   1.353       .  A
N1185      N1186   1.319       .  A
N1186      C1191   1.351       .  A
N1187      N1188   1.320       .  A
N1187     Mn1657   2.202       .  S
N1188      C1190   1.352       .  A
Mn1189     N1407   2.204       .  S
Mn1189     N1655   2.202       .  S
C1190      C1325   1.468       .  S
C1191      C1397   1.467       .  S
N1192      N1193   1.321       .  A
N1192      N1198   1.316       .  A
N1192     Mn1200   2.203       .  S
N1193      C1201   1.352       .  A
N1194      N1196   1.316       .  A
N1194      N1195   1.320       .  A
N1194     Mn1446   2.202   1_556  S
N1195      C1202   1.352       .  A
N1196      N1197   1.320       .  A
N1196     Mn1668   2.201       .  S
N1197      C1202   1.352       .  A
N1198      N1199   1.319       .  A
N1199      C1201   1.351       .  A
Mn1200     N1664   2.201   1_545  S
C1201      C1286   1.467       .  S
C1202      C1379   1.468       .  S
N1203      N1204   1.320       .  A
N1203      N1209   1.316       .  A
N1203     Mn1679   2.200       .  S
N1204      C1214   1.352       .  A
N1205      N1206   1.320       .  A
N1205      N1207   1.316       .  A
N1205     Mn1212   2.200       .  S
N1206      C1215   1.352       .  A
N1207      N1208   1.320       .  A
N1207     Mn1211   2.201       .  S
N1208      C1215   1.352       .  A
N1209      N1210   1.320       .  A
N1209     Mn1680   2.201       .  S
N1210      C1214   1.352       .  A
Mn1211     N1671   2.200   1_545  S
Mn1211    Cl1213   2.547       .  S
Mn1212     N1428   2.202   1_545  S
Mn1212     N1677   2.201   1_545  S
Mn1212    Cl1213   2.547       .  S
C1214      C1307   1.467       .  S
C1215      C1268   1.467       .  S
N1216      N1217   1.319       .  A
N1216      N1222   1.316       .  A
N1216     Mn1245   2.198       .  S
N1217      C1224   1.351       .  A
N1218      N1220   1.316       .  A
N1218      N1219   1.320       .  A
N1218     Mn1234   2.202       .  S
N1219      C1225   1.352       .  A
N1220      N1221   1.320       .  A
N1220     Mn1245   2.201       .  S
N1221      C1225   1.352       .  A
N1222      N1223   1.321       .  A
N1222     Mn1234   2.203       .  S
N1223      C1224   1.353       .  A
C1224      C1394   1.467       .  S
C1225      C1322   1.468       .  S
N1226      N1232   1.316       .  A
N1226      N1227   1.320       .  A
N1226     Mn1256   2.199       .  S
N1227      C1235   1.351       .  A
N1228      N1229   1.320       .  A
N1228      N1230   1.316       .  A
N1228     Mn1234   2.201       .  S
N1229      C1236   1.352       .  A
N1230      N1231   1.321       .  A
N1230     Mn1256   2.203       .  S
N1231      C1236   1.352       .  A
N1232      N1233   1.321       .  A
N1232     Mn1234   2.204       .  S
N1233      C1235   1.352       .  A
Mn1234    Cl1258   2.547       .  S
C1235      C1361   1.467       .  S
C1236      C1343   1.468       .  S
N1237      N1238   1.321       .  A
N1237      N1243   1.316       .  A
N1237     Mn1245   2.201       .  S
N1238      C1246   1.352       .  A
N1239      N1241   1.316       .  A
N1239      N1240   1.321       .  A
N1239     Mn1257   2.201       .  S
N1240      C1247   1.352       .  A
N1241      N1242   1.320       .  A
N1241     Mn1245   2.199       .  S
N1242      C1247   1.352       .  A
N1243      N1244   1.320       .  A
N1243     Mn1257   2.200       .  S
N1244      C1246   1.352       .  A
Mn1245    Cl1258   2.547       .  S
C1246      C1271   1.467       .  S
C1247      C1304   1.467       .  S
N1248      N1249   1.320       .  A
N1248      N1254   1.316       .  A
N1248     Mn1256   2.201       .  S
N1249      C1259   1.352       .  A
N1250      N1251   1.319       .  A
N1250      N1252   1.316       .  A
N1250     Mn1257   2.198       .  S
N1251      C1260   1.351       .  A
N1252      N1253   1.321       .  A
N1252     Mn1256   2.203       .  S
N1253      C1260   1.352       .  A
N1254      N1255   1.320       .  A
N1254     Mn1257   2.202       .  S
N1255      C1259   1.352       .  A
Mn1256    Cl1258   2.548       .  S
Mn1257    Cl1258   2.547       .  S
C1259      C1376   1.468       .  S
C1260      C1289   1.467       .  S
C1261      N1267   1.343       .  A
C1261      C1266   1.385       .  A
C1261      C1262   1.402       .  A
C1262      C1263   1.402       .  A
C1262      H1273   1.082       .  S
C1263      C1272   1.377       .  A
C1263      C1264   1.385       .  A
C1264      N1270   1.343       .  A
C1264      C1265   1.403       .  A
C1265      C1266   1.402       .  A
C1265      H1274   1.082       .  S
C1266      C1269   1.377       .  A
N1267      C1268   1.355       .  A
N1267      H1277   1.045       .  S
C1268      C1269   1.394       .  A
C1269      H1275   1.082       .  S
N1270      C1271   1.355       .  A
N1270      H1278   1.045       .  S
C1271      C1272   1.394       .  A
C1272      H1276   1.082       .  S
C1279      N1285   1.343       .  A
C1279      C1284   1.385       .  A
C1279      C1280   1.402       .  A
C1280      C1281   1.402       .  A
C1280      H1291   1.082       .  S
C1281      C1290   1.376       .  A
C1281      C1282   1.385       .  A
C1282      N1288   1.343       .  A
C1282      C1283   1.402       .  A
C1283      C1284   1.402       .  A
C1283      H1292   1.082       .  S
C1284      C1287   1.377       .  A
N1285      C1286   1.354       .  A
N1285      H1295   1.045       .  S
C1286      C1287   1.394       .  A
C1287      H1293   1.082       .  S
N1288      C1289   1.355       .  A
N1288      H1296   1.045       .  S
C1289      C1290   1.394       .  A
C1290      H1294   1.082       .  S
C1297      N1303   1.343       .  A
C1297      C1302   1.385       .  A
C1297      C1298   1.403       .  A
C1298      C1299   1.402       .  A
C1298      H1309   1.082       .  S
C1299      C1308   1.377       .  A
C1299      C1300   1.385       .  A
C1300      N1306   1.343       .  A
C1300      C1301   1.402       .  A
C1301      C1302   1.401       .  A
C1301      H1310   1.082       .  S
C1302      C1305   1.376       .  A
N1303      C1304   1.355       .  A
N1303      H1313   1.045       .  S
C1304      C1305   1.394       .  A
C1305      H1311   1.082       .  S
N1306      C1307   1.354       .  A
N1306      H1314   1.045       .  S
C1307      C1308   1.394       .  A
C1308      H1312   1.082       .  S
C1315      N1321   1.343       .  A
C1315      C1320   1.385       .  A
C1315      C1316   1.403       .  A
C1316      C1317   1.402       .  A
C1316      H1327   1.082       .  S
C1317      C1326   1.377       .  A
C1317      C1318   1.385       .  A
C1318      N1324   1.343       .  A
C1318      C1319   1.403       .  A
C1319      C1320   1.402       .  A
C1319      H1328   1.082       .  S
C1320      C1323   1.377       .  A
N1321      C1322   1.355       .  A
N1321      H1331   1.045       .  S
C1322      C1323   1.394       .  A
C1323      H1329   1.082       .  S
N1324      C1325   1.355       .  A
N1324      H1332   1.045       .  S
C1325      C1326   1.394       .  A
C1326      H1330   1.082       .  S
C1333      N1339   1.343       .  A
C1333      C1338   1.385       .  A
C1333      C1334   1.403       .  A
C1334      C1335   1.402       .  A
C1334      H1345   1.082       .  S
C1335      C1344   1.377       .  A
C1335      C1336   1.385       .  A
C1336      N1342   1.343       .  A
C1336      C1337   1.403       .  A
C1337      C1338   1.402       .  A
C1337      H1346   1.082       .  S
C1338      C1341   1.377       .  A
N1339      C1340   1.355       .  A
N1339      H1349   1.045       .  S
C1340      C1341   1.394       .  A
C1341      H1347   1.082       .  S
N1342      C1343   1.355       .  A
N1342      H1350   1.045       .  S
C1343      C1344   1.394       .  A
C1344      H1348   1.082       .  S
C1351      N1357   1.343       .  A
C1351      C1356   1.385       .  A
C1351      C1352   1.402       .  A
C1352      C1353   1.402       .  A
C1352      H1363   1.082       .  S
C1353      C1362   1.376       .  A
C1353      C1354   1.385       .  A
C1354      N1360   1.343       .  A
C1354      C1355   1.403       .  A
C1355      C1356   1.402       .  A
C1355      H1364   1.082       .  S
C1356      C1359   1.377       .  A
N1357      C1358   1.355       .  A
N1357      H1367   1.045       .  S
C1358      C1359   1.394       .  A
C1359      H1365   1.082       .  S
N1360      C1361   1.355       .  A
N1360      H1368   1.045       .  S
C1361      C1362   1.394       .  A
C1362      H1366   1.082       .  S
C1369      N1375   1.343       .  A
C1369      C1374   1.385       .  A
C1369      C1370   1.403       .  A
C1370      C1371   1.402       .  A
C1370      H1381   1.082       .  S
C1371      C1380   1.377       .  A
C1371      C1372   1.385       .  A
C1372      N1378   1.343       .  A
C1372      C1373   1.403       .  A
C1373      C1374   1.402       .  A
C1373      H1382   1.082       .  S
C1374      C1377   1.377       .  A
N1375      C1376   1.355       .  A
N1375      H1385   1.045       .  S
C1376      C1377   1.394       .  A
C1377      H1383   1.082       .  S
N1378      C1379   1.355       .  A
N1378      H1386   1.045       .  S
C1379      C1380   1.394       .  A
C1380      H1384   1.082       .  S
C1387      N1393   1.343       .  A
C1387      C1392   1.385       .  A
C1387      C1388   1.402       .  A
C1388      C1389   1.402       .  A
C1388      H1399   1.082       .  S
C1389      C1398   1.376       .  A
C1389      C1390   1.385       .  A
C1390      N1396   1.343       .  A
C1390      C1391   1.402       .  A
C1391      C1392   1.402       .  A
C1391      H1400   1.082       .  S
C1392      C1395   1.376       .  A
N1393      C1394   1.355       .  A
N1393      H1403   1.045       .  S
C1394      C1395   1.394       .  A
C1395      H1401   1.082       .  S
N1396      C1397   1.355       .  A
N1396      H1404   1.045       .  S
C1397      C1398   1.394       .  A
C1398      H1402   1.082       .  S
N1405      N1406   1.321       .  A
N1405      N1411   1.316       .  A
N1406      C1413   1.352       .  A
N1407      N1409   1.316       .  A
N1407      N1408   1.321       .  A
N1408      C1414   1.352       .  A
N1409      N1410   1.320       .  A
N1410      C1414   1.352       .  A
N1411      N1412   1.320       .  A
N1411     Mn1657   2.202   1_565  S
N1412      C1413   1.352       .  A
C1413      C1574   1.468       .  S
C1414      C1592   1.467       .  S
N1415      N1421   1.316       .  A
N1415      N1416   1.320       .  A
N1416      C1424   1.352       .  A
N1417      N1418   1.321       .  A
N1417      N1419   1.316       .  A
N1417     Mn1423   2.203   1_564  S
N1418      C1425   1.353       .  A
N1419      N1420   1.319       .  A
N1420      C1425   1.351       .  A
N1421      N1422   1.320       .  A
N1422      C1424   1.352       .  A
Mn1423     N1645   2.202   1_545  S
C1424      C1559   1.468       .  S
C1425      C1631   1.467       .  S
N1426      N1427   1.321       .  A
N1426      N1432   1.316       .  A
N1426     Mn1434   2.203       .  S
N1427      C1435   1.352       .  A
N1428      N1430   1.316       .  A
N1428      N1429   1.320       .  A
N1429      C1436   1.352       .  A
N1430      N1431   1.320       .  A
N1431      C1436   1.352       .  A
N1432      N1433   1.319       .  A
N1432     Mn1680   2.197       .  S
N1433      C1435   1.351       .  A
Mn1434    Cl1681   2.548       .  S
C1435      C1520   1.467       .  S
C1436      C1613   1.468       .  S
N1437      N1438   1.320       .  A
N1437      N1443   1.316       .  A
N1438      C1448   1.352       .  A
N1439      N1440   1.320       .  A
N1439      N1441   1.316       .  A
N1439     Mn1446   2.200       .  S
N1440      C1449   1.352       .  A
N1441      N1442   1.320       .  A
N1441     Mn1445   2.201       .  S
N1442      C1449   1.352       .  A
N1443      N1444   1.320       .  A
N1444      C1448   1.352       .  A
Mn1445    Cl1447   2.547   1_554  S
Mn1446     N1666   2.197   1_554  S
Mn1446    Cl1447   2.547   1_554  S
Cl1447    Mn1668   2.548       .  S
C1448      C1541   1.467       .  S
C1449      C1502   1.467       .  S
N1450      N1451   1.319       .  A
N1450      N1456   1.316       .  A
N1450     Mn1479   2.198       .  S
N1451      C1458   1.351       .  A
N1452      N1454   1.316       .  A
N1452      N1453   1.320       .  A
N1452     Mn1468   2.202       .  S
N1453      C1459   1.352       .  A
N1454      N1455   1.320       .  A
N1454     Mn1479   2.201       .  S
N1455      C1459   1.352       .  A
N1456      N1457   1.321       .  A
N1456     Mn1468   2.203       .  S
N1457      C1458   1.353       .  A
C1458      C1628   1.467       .  S
C1459      C1556   1.468       .  S
N1460      N1466   1.316       .  A
N1460      N1461   1.320       .  A
N1460     Mn1490   2.199       .  S
N1461      C1469   1.351       .  A
N1462      N1463   1.320       .  A
N1462      N1464   1.316       .  A
N1462     Mn1468   2.201       .  S
N1463      C1470   1.352       .  A
N1464      N1465   1.321       .  A
N1464     Mn1490   2.203       .  S
N1465      C1470   1.352       .  A
N1466      N1467   1.321       .  A
N1466     Mn1468   2.204       .  S
N1467      C1469   1.352       .  A
Mn1468    Cl1492   2.547       .  S
C1469      C1595   1.467       .  S
C1470      C1577   1.468       .  S
N1471      N1472   1.321       .  A
N1471      N1477   1.316       .  A
N1471     Mn1479   2.201       .  S
N1472      C1480   1.352       .  A
N1473      N1475   1.316       .  A
N1473      N1474   1.321       .  A
N1473     Mn1491   2.201       .  S
N1474      C1481   1.352       .  A
N1475      N1476   1.320       .  A
N1475     Mn1479   2.199       .  S
N1476      C1481   1.352       .  A
N1477      N1478   1.320       .  A
N1477     Mn1491   2.200       .  S
N1478      C1480   1.352       .  A
Mn1479    Cl1492   2.547       .  S
C1480      C1505   1.467       .  S
C1481      C1538   1.467       .  S
N1482      N1483   1.320       .  A
N1482      N1488   1.316       .  A
N1482     Mn1490   2.201       .  S
N1483      C1493   1.352       .  A
N1484      N1485   1.319       .  A
N1484      N1486   1.316       .  A
N1484     Mn1491   2.198       .  S
N1485      C1494   1.351       .  A
N1486      N1487   1.321       .  A
N1486     Mn1490   2.203       .  S
N1487      C1494   1.352       .  A
N1488      N1489   1.320       .  A
N1488     Mn1491   2.202       .  S
N1489      C1493   1.352       .  A
Mn1490    Cl1492   2.548       .  S
Mn1491    Cl1492   2.547       .  S
C1493      C1610   1.468       .  S
C1494      C1523   1.467       .  S
C1495      N1501   1.343       .  A
C1495      C1500   1.385       .  A
C1495      C1496   1.402       .  A
C1496      C1497   1.402       .  A
C1496      H1507   1.082       .  S
C1497      C1506   1.377       .  A
C1497      C1498   1.385       .  A
C1498      N1504   1.343       .  A
C1498      C1499   1.403       .  A
C1499      C1500   1.402       .  A
C1499      H1508   1.082       .  S
C1500      C1503   1.377       .  A
N1501      C1502   1.355       .  A
N1501      H1511   1.045       .  S
C1502      C1503   1.394       .  A
C1503      H1509   1.082       .  S
N1504      C1505   1.355       .  A
N1504      H1512   1.045       .  S
C1505      C1506   1.394       .  A
C1506      H1510   1.082       .  S
C1513      N1519   1.343       .  A
C1513      C1518   1.385       .  A
C1513      C1514   1.402       .  A
C1514      C1515   1.402       .  A
C1514      H1525   1.082       .  S
C1515      C1524   1.376       .  A
C1515      C1516   1.385       .  A
C1516      N1522   1.343       .  A
C1516      C1517   1.402       .  A
C1517      C1518   1.402       .  A
C1517      H1526   1.082       .  S
C1518      C1521   1.377       .  A
N1519      C1520   1.354       .  A
N1519      H1529   1.045       .  S
C1520      C1521   1.394       .  A
C1521      H1527   1.082       .  S
N1522      C1523   1.355       .  A
N1522      H1530   1.045       .  S
C1523      C1524   1.394       .  A
C1524      H1528   1.082       .  S
C1531      N1537   1.343       .  A
C1531      C1536   1.385       .  A
C1531      C1532   1.403       .  A
C1532      C1533   1.402       .  A
C1532      H1543   1.082       .  S
C1533      C1542   1.377       .  A
C1533      C1534   1.385       .  A
C1534      N1540   1.343       .  A
C1534      C1535   1.402       .  A
C1535      C1536   1.401       .  A
C1535      H1544   1.082       .  S
C1536      C1539   1.376       .  A
N1537      C1538   1.355       .  A
N1537      H1547   1.045       .  S
C1538      C1539   1.394       .  A
C1539      H1545   1.082       .  S
N1540      C1541   1.354       .  A
N1540      H1548   1.045       .  S
C1541      C1542   1.394       .  A
C1542      H1546   1.082       .  S
C1549      N1555   1.343       .  A
C1549      C1554   1.385       .  A
C1549      C1550   1.403       .  A
C1550      C1551   1.402       .  A
C1550      H1561   1.082       .  S
C1551      C1560   1.377       .  A
C1551      C1552   1.385       .  A
C1552      N1558   1.343       .  A
C1552      C1553   1.403       .  A
C1553      C1554   1.402       .  A
C1553      H1562   1.082       .  S
C1554      C1557   1.377       .  A
N1555      C1556   1.355       .  A
N1555      H1565   1.045       .  S
C1556      C1557   1.394       .  A
C1557      H1563   1.082       .  S
N1558      C1559   1.355       .  A
N1558      H1566   1.045       .  S
C1559      C1560   1.394       .  A
C1560      H1564   1.082       .  S
C1567      N1573   1.343       .  A
C1567      C1572   1.385       .  A
C1567      C1568   1.403       .  A
C1568      C1569   1.402       .  A
C1568      H1579   1.082       .  S
C1569      C1578   1.377       .  A
C1569      C1570   1.385       .  A
C1570      N1576   1.343       .  A
C1570      C1571   1.403       .  A
C1571      C1572   1.402       .  A
C1571      H1580   1.082       .  S
C1572      C1575   1.377       .  A
N1573      C1574   1.355       .  A
N1573      H1583   1.045       .  S
C1574      C1575   1.394       .  A
C1575      H1581   1.082       .  S
N1576      C1577   1.355       .  A
N1576      H1584   1.045       .  S
C1577      C1578   1.394       .  A
C1578      H1582   1.082       .  S
C1585      N1591   1.343       .  A
C1585      C1590   1.385       .  A
C1585      C1586   1.402       .  A
C1586      C1587   1.402       .  A
C1586      H1597   1.082       .  S
C1587      C1596   1.376       .  A
C1587      C1588   1.385       .  A
C1588      N1594   1.343       .  A
C1588      C1589   1.403       .  A
C1589      C1590   1.402       .  A
C1589      H1598   1.082       .  S
C1590      C1593   1.377       .  A
N1591      C1592   1.355       .  A
N1591      H1601   1.045       .  S
C1592      C1593   1.394       .  A
C1593      H1599   1.082       .  S
N1594      C1595   1.355       .  A
N1594      H1602   1.045       .  S
C1595      C1596   1.394       .  A
C1596      H1600   1.082       .  S
C1603      N1609   1.343       .  A
C1603      C1608   1.385       .  A
C1603      C1604   1.403       .  A
C1604      C1605   1.402       .  A
C1604      H1615   1.082       .  S
C1605      C1614   1.377       .  A
C1605      C1606   1.385       .  A
C1606      N1612   1.343       .  A
C1606      C1607   1.403       .  A
C1607      C1608   1.402       .  A
C1607      H1616   1.082       .  S
C1608      C1611   1.377       .  A
N1609      C1610   1.355       .  A
N1609      H1619   1.045       .  S
C1610      C1611   1.394       .  A
C1611      H1617   1.082       .  S
N1612      C1613   1.355       .  A
N1612      H1620   1.045       .  S
C1613      C1614   1.394       .  A
C1614      H1618   1.082       .  S
C1621      N1627   1.343       .  A
C1621      C1626   1.385       .  A
C1621      C1622   1.402       .  A
C1622      C1623   1.402       .  A
C1622      H1633   1.082       .  S
C1623      C1632   1.376       .  A
C1623      C1624   1.385       .  A
C1624      N1630   1.343       .  A
C1624      C1625   1.402       .  A
C1625      C1626   1.402       .  A
C1625      H1634   1.082       .  S
C1626      C1629   1.376       .  A
N1627      C1628   1.355       .  A
N1627      H1637   1.045       .  S
C1628      C1629   1.394       .  A
C1629      H1635   1.082       .  S
N1630      C1631   1.355       .  A
N1630      H1638   1.045       .  S
C1631      C1632   1.394       .  A
C1632      H1636   1.082       .  S
N1639      N1640   1.321       .  A
N1639      N1645   1.316       .  A
N1640      C1647   1.352       .  A
N1641      N1643   1.316       .  A
N1641      N1642   1.321       .  A
N1642      C1648   1.352       .  A
N1643      N1644   1.320       .  A
N1644      C1648   1.352       .  A
N1645      N1646   1.320       .  A
N1646      C1647   1.352       .  A
C1647      C1808   1.468       .  S
C1648      C1826   1.467       .  S
N1649      N1655   1.316       .  A
N1649      N1650   1.320       .  A
N1650      C1658   1.352       .  A
N1651      N1652   1.321       .  A
N1651      N1653   1.316       .  A
N1651     Mn1657   2.203   1_565  S
N1652      C1659   1.353       .  A
N1653      N1654   1.319       .  A
N1654      C1659   1.351       .  A
N1655      N1656   1.320       .  A
N1656      C1658   1.352       .  A
C1658      C1793   1.468       .  S
C1659      C1865   1.467       .  S
N1660      N1661   1.321       .  A
N1660      N1666   1.316       .  A
N1660     Mn1668   2.203       .  S
N1661      C1669   1.352       .  A
N1662      N1664   1.316       .  A
N1662      N1663   1.320       .  A
N1663      C1670   1.352       .  A
N1664      N1665   1.320       .  A
N1665      C1670   1.352       .  A
N1666      N1667   1.319       .  A
N1667      C1669   1.351       .  A
C1669      C1754   1.467       .  S
C1670      C1847   1.468       .  S
N1671      N1672   1.320       .  A
N1671      N1677   1.316       .  A
N1672      C1682   1.352       .  A
N1673      N1674   1.320       .  A
N1673      N1675   1.316       .  A
N1673     Mn1680   2.200       .  S
N1674      C1683   1.352       .  A
N1675      N1676   1.320       .  A
N1675     Mn1679   2.201       .  S
N1676      C1683   1.352       .  A
N1677      N1678   1.320       .  A
N1678      C1682   1.352       .  A
Mn1679    Cl1681   2.547       .  S
Mn1680    Cl1681   2.547       .  S
C1682      C1775   1.467       .  S
C1683      C1736   1.467       .  S
N1684      N1685   1.319       .  A
N1684      N1690   1.316       .  A
N1684     Mn1713   2.198       .  S
N1685      C1692   1.351       .  A
N1686      N1688   1.316       .  A
N1686      N1687   1.320       .  A
N1686     Mn1702   2.202       .  S
N1687      C1693   1.352       .  A
N1688      N1689   1.320       .  A
N1688     Mn1713   2.201       .  S
N1689      C1693   1.352       .  A
N1690      N1691   1.321       .  A
N1690     Mn1702   2.203       .  S
N1691      C1692   1.353       .  A
C1692      C1862   1.467       .  S
C1693      C1790   1.468       .  S
N1694      N1700   1.316       .  A
N1694      N1695   1.320       .  A
N1694     Mn1724   2.199       .  S
N1695      C1703   1.351       .  A
N1696      N1697   1.320       .  A
N1696      N1698   1.316       .  A
N1696     Mn1702   2.201       .  S
N1697      C1704   1.352       .  A
N1698      N1699   1.321       .  A
N1698     Mn1724   2.203       .  S
N1699      C1704   1.352       .  A
N1700      N1701   1.321       .  A
N1700     Mn1702   2.204       .  S
N1701      C1703   1.352       .  A
Mn1702    Cl1726   2.547       .  S
C1703      C1829   1.467       .  S
C1704      C1811   1.468       .  S
N1705      N1706   1.321       .  A
N1705      N1711   1.316       .  A
N1705     Mn1713   2.201       .  S
N1706      C1714   1.352       .  A
N1707      N1709   1.316       .  A
N1707      N1708   1.321       .  A
N1707     Mn1725   2.201       .  S
N1708      C1715   1.352       .  A
N1709      N1710   1.320       .  A
N1709     Mn1713   2.199       .  S
N1710      C1715   1.352       .  A
N1711      N1712   1.320       .  A
N1711     Mn1725   2.200       .  S
N1712      C1714   1.352       .  A
Mn1713    Cl1726   2.547       .  S
C1714      C1739   1.467       .  S
C1715      C1772   1.467       .  S
N1716      N1717   1.320       .  A
N1716      N1722   1.316       .  A
N1716     Mn1724   2.201       .  S
N1717      C1727   1.352       .  A
N1718      N1719   1.319       .  A
N1718      N1720   1.316       .  A
N1718     Mn1725   2.198       .  S
N1719      C1728   1.351       .  A
N1720      N1721   1.321       .  A
N1720     Mn1724   2.203       .  S
N1721      C1728   1.352       .  A
N1722      N1723   1.320       .  A
N1722     Mn1725   2.202       .  S
N1723      C1727   1.352       .  A
Mn1724    Cl1726   2.548       .  S
Mn1725    Cl1726   2.547       .  S
C1727      C1844   1.468       .  S
C1728      C1757   1.467       .  S
C1729      N1735   1.343       .  A
C1729      C1734   1.385       .  A
C1729      C1730   1.402       .  A
C1730      C1731   1.402       .  A
C1730      H1741   1.082       .  S
C1731      C1740   1.377       .  A
C1731      C1732   1.385       .  A
C1732      N1738   1.343       .  A
C1732      C1733   1.403       .  A
C1733      C1734   1.402       .  A
C1733      H1742   1.082       .  S
C1734      C1737   1.377       .  A
N1735      C1736   1.355       .  A
N1735      H1745   1.045       .  S
C1736      C1737   1.394       .  A
C1737      H1743   1.082       .  S
N1738      C1739   1.355       .  A
N1738      H1746   1.045       .  S
C1739      C1740   1.394       .  A
C1740      H1744   1.082       .  S
C1747      N1753   1.343       .  A
C1747      C1752   1.385       .  A
C1747      C1748   1.402       .  A
C1748      C1749   1.402       .  A
C1748      H1759   1.082       .  S
C1749      C1758   1.376       .  A
C1749      C1750   1.385       .  A
C1750      N1756   1.343       .  A
C1750      C1751   1.402       .  A
C1751      C1752   1.402       .  A
C1751      H1760   1.082       .  S
C1752      C1755   1.377       .  A
N1753      C1754   1.354       .  A
N1753      H1763   1.045       .  S
C1754      C1755   1.394       .  A
C1755      H1761   1.082       .  S
N1756      C1757   1.355       .  A
N1756      H1764   1.045       .  S
C1757      C1758   1.394       .  A
C1758      H1762   1.082       .  S
C1765      N1771   1.343       .  A
C1765      C1770   1.385       .  A
C1765      C1766   1.403       .  A
C1766      C1767   1.402       .  A
C1766      H1777   1.082       .  S
C1767      C1776   1.377       .  A
C1767      C1768   1.385       .  A
C1768      N1774   1.343       .  A
C1768      C1769   1.402       .  A
C1769      C1770   1.401       .  A
C1769      H1778   1.082       .  S
C1770      C1773   1.376       .  A
N1771      C1772   1.355       .  A
N1771      H1781   1.045       .  S
C1772      C1773   1.394       .  A
C1773      H1779   1.082       .  S
N1774      C1775   1.354       .  A
N1774      H1782   1.045       .  S
C1775      C1776   1.394       .  A
C1776      H1780   1.082       .  S
C1783      N1789   1.343       .  A
C1783      C1788   1.385       .  A
C1783      C1784   1.403       .  A
C1784      C1785   1.402       .  A
C1784      H1795   1.082       .  S
C1785      C1794   1.377       .  A
C1785      C1786   1.385       .  A
C1786      N1792   1.343       .  A
C1786      C1787   1.403       .  A
C1787      C1788   1.402       .  A
C1787      H1796   1.082       .  S
C1788      C1791   1.377       .  A
N1789      C1790   1.355       .  A
N1789      H1799   1.045       .  S
C1790      C1791   1.394       .  A
C1791      H1797   1.082       .  S
N1792      C1793   1.355       .  A
N1792      H1800   1.045       .  S
C1793      C1794   1.394       .  A
C1794      H1798   1.082       .  S
C1801      N1807   1.343       .  A
C1801      C1806   1.385       .  A
C1801      C1802   1.403       .  A
C1802      C1803   1.402       .  A
C1802      H1813   1.082       .  S
C1803      C1812   1.377       .  A
C1803      C1804   1.385       .  A
C1804      N1810   1.343       .  A
C1804      C1805   1.403       .  A
C1805      C1806   1.402       .  A
C1805      H1814   1.082       .  S
C1806      C1809   1.377       .  A
N1807      C1808   1.355       .  A
N1807      H1817   1.045       .  S
C1808      C1809   1.394       .  A
C1809      H1815   1.082       .  S
N1810      C1811   1.355       .  A
N1810      H1818   1.045       .  S
C1811      C1812   1.394       .  A
C1812      H1816   1.082       .  S
C1819      N1825   1.343       .  A
C1819      C1824   1.385       .  A
C1819      C1820   1.402       .  A
C1820      C1821   1.402       .  A
C1820      H1831   1.082       .  S
C1821      C1830   1.376       .  A
C1821      C1822   1.385       .  A
C1822      N1828   1.343       .  A
C1822      C1823   1.403       .  A
C1823      C1824   1.402       .  A
C1823      H1832   1.082       .  S
C1824      C1827   1.377       .  A
N1825      C1826   1.355       .  A
N1825      H1835   1.045       .  S
C1826      C1827   1.394       .  A
C1827      H1833   1.082       .  S
N1828      C1829   1.355       .  A
N1828      H1836   1.045       .  S
C1829      C1830   1.394       .  A
C1830      H1834   1.082       .  S
C1837      N1843   1.343       .  A
C1837      C1842   1.385       .  A
C1837      C1838   1.403       .  A
C1838      C1839   1.402       .  A
C1838      H1849   1.082       .  S
C1839      C1848   1.377       .  A
C1839      C1840   1.385       .  A
C1840      N1846   1.343       .  A
C1840      C1841   1.403       .  A
C1841      C1842   1.402       .  A
C1841      H1850   1.082       .  S
C1842      C1845   1.377       .  A
N1843      C1844   1.355       .  A
N1843      H1853   1.045       .  S
C1844      C1845   1.394       .  A
C1845      H1851   1.082       .  S
N1846      C1847   1.355       .  A
N1846      H1854   1.045       .  S
C1847      C1848   1.394       .  A
C1848      H1852   1.082       .  S
C1855      N1861   1.343       .  A
C1855      C1860   1.385       .  A
C1855      C1856   1.402       .  A
C1856      C1857   1.402       .  A
C1856      H1867   1.082       .  S
C1857      C1866   1.376       .  A
C1857      C1858   1.385       .  A
C1858      N1864   1.343       .  A
C1858      C1859   1.402       .  A
C1859      C1860   1.402       .  A
C1859      H1868   1.082       .  S
C1860      C1863   1.376       .  A
N1861      C1862   1.355       .  A
N1861      H1871   1.045       .  S
C1862      C1863   1.394       .  A
C1863      H1869   1.082       .  S
N1864      C1865   1.355       .  A
N1864      H1872   1.045       .  S
C1865      C1866   1.394       .  A
C1866      H1870   1.082       .  S
