geometry optimzed in LAMMPS
_audit_creation_date              2020-11-30 
_audit_creation_method            'lammps2cif' 
_symmetry_space_group_name_H-M    'P1' 
_symmetry_Int_Tables_number       1 
_symmetry_cell_setting            triclinic 
loop_ 
_symmetry_equiv_pos_as_xyz 
  x,y,z 
_cell_length_a                    30.51237835 
_cell_length_b                    30.891485165984854 
_cell_length_c                    50.5474985885067 
_cell_angle_alpha                 89.61523693388841 
_cell_angle_beta                  88.67428093044857 
_cell_angle_gamma                 91.38440561213915 
loop_ 
_atom_site_label 
_atom_site_type_symbol 
_atom_site_fract_x 
_atom_site_fract_y 
_atom_site_fract_z 
_atom_site_charge 
O1          O  0.29541507  0.03645392  0.03646107    -0.73200
O2          O  0.30834935  0.12774521  0.09238263    -0.74200
O3          O  0.30845634  0.03869585  0.09219263    -0.62800
O4          O  0.29531934  0.13151634  0.03678302    -0.71200
O5          O  0.22336346  0.13019000  0.04389765    -0.70700
O6          O  0.23656344  0.03657985  0.09922683    -0.62000
O7          O  0.23655180  0.12592716  0.09990107    -0.74500
O8          O  0.22339458  0.03460887  0.04327042    -0.73300
Cu9        Cu  0.30416536  0.08366612  0.06374743     1.04600
Cu10       Cu  0.22734750  0.08176623  0.07134999     1.04300
C11         C  0.25773090  0.01915971  0.03213722     0.93000
C12         C  0.27509614  0.13805750  0.10657680     0.92200
C13         C  0.27498653  0.02650153  0.10624423     0.84300
C14         C  0.25768771  0.14743349  0.03272531     0.90600
C15         C  0.18901275  0.08319763  0.80121133     0.86300
C16         C  0.19351974  0.04331183  0.81953156    -0.54000
C17         C  0.23052771  0.04413845  0.83442015     0.09200
C18         C  0.26071086  0.08353389  0.82863220     0.20100
C19         C  0.19428004  0.12225031  0.81998113    -0.54700
C20         C  0.23118610  0.12171712  0.83495022     0.09300
C21         C  0.23175373  0.08402133  0.78426585    -0.54200
C22         C  0.26879552  0.08412543  0.79860147     0.09900
H23         H  0.16741775  0.01917254  0.82265797     0.14400
H24         H  0.29137925  0.08361827  0.83999241     0.00100
H25         H  0.16852506  0.14535550  0.82339651     0.14700
H26         H  0.23427852  0.08358345  0.76292960     0.14500
O27         O  0.28030655  0.20565390  0.94864079    -0.73200
O28         O  0.28910906  0.29845230  0.00411636    -0.74200
O29         O  0.28907505  0.20338056  0.00465723    -0.62800
O30         O  0.28048244  0.29490315  0.94807594    -0.71200
O31         O  0.20816616  0.29327670  0.95304198    -0.70700
O32         O  0.21674993  0.20137540  0.00992700    -0.62000
O33         O  0.21679682  0.29696731  0.00938478    -0.74500
O34         O  0.20800771  0.20387355  0.95355256    -0.73300
Cu35       Cu  0.28722167  0.25067290  0.97666904     1.04600
Cu36       Cu  0.20998420  0.24883960  0.98212626     1.04300
C37         C  0.24260484  0.19328625  0.94065349     0.93000
C38         C  0.25428086  0.31420528  0.01440992     0.92200
C39         C  0.25424239  0.18592369  0.01503691     0.84300
C40         C  0.24276186  0.30527107  0.93997347     0.90600
C41         C  0.35102260  0.24645330  0.24189327     0.86300
C42         C  0.34183251  0.20668147  0.22395733    -0.54000
C43         C  0.30290173  0.20796289  0.21107031     0.09200
C44         C  0.27626261  0.24777877  0.21781166     0.20100
C45         C  0.34635357  0.28514954  0.22274111    -0.54700
C46         C  0.30775496  0.28514606  0.20948065     0.09300
C47         C  0.31077815  0.24800825  0.26066359    -0.54200
C48         C  0.27156714  0.24855952  0.24821419     0.09900
H49         H  0.36563514  0.18296897  0.21831978     0.14400
H50         H  0.24441885  0.24817979  0.20764915     0.00100
H51         H  0.37299859  0.30820635  0.21842010     0.14700
H52         H  0.31336283  0.24929091  0.28202571     0.14500
O53         O  0.46011549  0.20602032  0.59271576    -0.73200
O54         O  0.47062020  0.29943647  0.53630172    -0.74200
O55         O  0.47285751  0.20402172  0.53650673    -0.62800
O56         O  0.45707525  0.29487896  0.59265753    -0.71200
O57         O  0.02928538  0.29964933  0.59685646    -0.70700
O58         O  0.04471809  0.20646462  0.54205559    -0.62000
O59         O  0.04269044  0.30126263  0.54105955    -0.74500
O60         O  0.03212454  0.21093259  0.59805019    -0.73300
Cu61       Cu  0.46273217  0.25096356  0.56385767     1.04600
Cu62       Cu  0.03971734  0.25467224  0.56918764     1.04300
C63         C  0.49410357  0.19782786  0.60602923     0.93000
C64         C  0.00837146  0.31689334  0.53100274     0.92200
C65         C  0.01086206  0.18878278  0.53170880     0.84300
C66         C  0.49060336  0.30828323  0.60517145     0.90600
O67         O  0.47976052  0.03819153  0.50236794    -0.73200
O68         O  0.49871622  0.13355032  0.44801863    -0.74200
O69         O  0.49676959  0.04430362  0.44648093    -0.62800
O70         O  0.48162302  0.13345486  0.50357787    -0.71200
O71         O  0.05340219  0.13484198  0.50947847    -0.70700
O72         O  0.06816273  0.04251907  0.45390921    -0.62000
O73         O  0.07062495  0.13162181  0.45373323    -0.74500
O74         O  0.05119565  0.03969782  0.50951802    -0.73300
Cu75       Cu  0.48660288  0.08731400  0.47533634     1.04600
Cu76       Cu  0.06314936  0.08716889  0.48239356     1.04300
C77         C  0.01310904  0.02228471  0.51348726     0.93000
C78         C  0.03790992  0.14401704  0.44062232     0.92200
C79         C  0.03533246  0.03276250  0.43969264     0.84300
C80         C  0.01553328  0.15051926  0.51417704     0.90600
C81         C  0.51769859  0.25120782  0.30124344     0.86300
C82         C  0.52013461  0.21062409  0.31880957    -0.54000
C83         C  0.05656853  0.20889638  0.33392283     0.09200
C84         C  0.08864181  0.24755622  0.32896107     0.20100
C85         C  0.52370282  0.28832560  0.32139526    -0.54700
C86         C  0.06059536  0.28658138  0.33666178     0.09300
C87         C  0.05997115  0.25210241  0.28450558    -0.54200
C88         C  0.09733923  0.25074388  0.29872591     0.09900
H89         H  0.49177841  0.18926807  0.32248891     0.14400
H90         H  0.11981966  0.24497045  0.33922341     0.00100
H91         H  0.49705691  0.30899083  0.32670178     0.14700
H92         H  0.05999612  0.25273506  0.26303701     0.14500
C93         C  0.01893354  0.07975642  0.74478114     0.86300
C94         C  0.01431755  0.03874520  0.72775144    -0.54000
C95         C  0.97781941  0.03708180  0.71251779     0.09200
C96         C  0.44750955  0.07526855  0.71736578     0.20100
C97         C  0.01371068  0.11740384  0.72487377    -0.54700
C98         C  0.97681987  0.11483912  0.70944456     0.09300
C99         C  0.97641224  0.08055203  0.76166612    -0.54200
C100        C  0.43952361  0.07817008  0.74733095     0.09900
H101        H  0.04125864  0.01687103  0.72456950     0.14400
H102        H  0.41564854  0.07188570  0.70787642     0.00100
H103        H  0.04003836  0.14111063  0.72179657     0.14700
H104        H  0.97391839  0.08393023  0.78285647     0.14500
C105        C  0.04291249  0.01259659  0.41361060    -0.00400
C106        C  0.07341193  0.31317886  0.41088108    -0.12300
C107        C  0.08348615  0.29532898  0.38605499     0.01900
C108        C  0.06225272  0.31037427  0.36288618    -0.00500
C109        C  0.03603116  0.01375124  0.36579160    -0.12200
C110        C  0.02491310  0.03030303  0.39060817     0.01700
H111        H  0.08936898  0.30127926  0.42837292     0.14700
H112        H  0.52285709  0.02941687  0.34857986     0.14700
C113        C  0.49538276  0.06615683  0.39157964     0.36400
C114        C  0.11666023  0.26294777  0.38608587     0.36300
N115        N  0.47141242  0.09462074  0.39200019    -0.44000
N116        N  0.14388272  0.23757411  0.38722534    -0.44000
C117        C  0.04553274  0.16491378  0.41459851    -0.00400
C118        C  0.07690167  0.14686263  0.39729872    -0.12300
C119        C  0.08005058  0.15946525  0.37063635     0.01900
C120        C  0.05155050  0.19056487  0.36099499    -0.00500
C121        C  0.02031889  0.20869668  0.37832317    -0.12200
C122        C  0.01748885  0.19654556  0.40497488     0.01700
H123        H  0.09777098  0.12151075  0.40434611     0.14700
H124        H  0.99897948  0.23356497  0.37116869     0.14700
C125        C  0.98682754  0.21815138  0.42225933     0.36400
C126        C  0.11195846  0.13953156  0.35340927     0.36300
N127        N  0.46259894  0.23583052  0.43616076    -0.44000
N128        N  0.13739842  0.12340734  0.33955744    -0.44000
C129        C  0.98118556  0.01920910  0.68534295    -0.00400
C130        C  0.01341244  0.03704034  0.66787992    -0.12300
C131        C  0.01548269  0.02534484  0.64123888     0.01900
C132        C  0.98470102  0.32849733  0.63143406    -0.00500
C133        C  0.45163302  0.31141449  0.64874298    -0.12200
C134        C  0.44969485  0.32324680  0.67550946     0.01700
H135        H  0.03624823  0.06138633  0.67492816     0.14700
H136        H  0.42825563  0.28745258  0.64162187     0.14700
C137        C  0.41539839  0.30490126  0.69256703     0.36400
C138        C  0.04899683  0.04539892  0.62429756     0.36300
N139        N  0.38790951  0.29026881  0.70628468    -0.44000
N140        N  0.07583271  0.06150502  0.61071459    -0.42400
C141        C  0.98883745  0.17720226  0.63231857    -0.00400
C142        C  0.45772060  0.14391685  0.63612001    -0.12300
C143        C  0.44980751  0.12512690  0.66111018     0.01900
C144        C  0.97436040  0.13938259  0.68340438    -0.00500
C145        C  0.00213711  0.17615868  0.67956984    -0.12200
C146        C  0.01022230  0.19436693  0.65451159     0.01700
H147        H  0.43934941  0.13244871  0.61929830     0.14700
H148        H  0.01829613  0.19107320  0.69613051     0.14700
C149        C  0.03974658  0.23161100  0.65248934     0.36400
C150        C  0.41506793  0.09275159  0.66201353     0.36300
N151        N  0.06356932  0.26131094  0.65114721    -0.44000
N152        N  0.38637767  0.06756633  0.66150860    -0.44000
C153        C  0.22795201  0.24972880  0.26235183    -0.00400
C154        C  0.19637600  0.27785383  0.25288981    -0.12300
C155        C  0.15425413  0.27926571  0.26452246     0.01900
C156        C  0.14242361  0.25159016  0.28612971    -0.00500
C157        C  0.17430485  0.22389449  0.29589565    -0.12200
C158        C  0.21658041  0.22264958  0.28427596     0.01700
H159        H  0.20480648  0.29937765  0.23644082     0.14700
H160        H  0.16587684  0.20217303  0.31224947     0.14700
C161        C  0.24678586  0.19177385  0.29450596     0.36400
C162        C  0.12449642  0.31054801  0.25426712     0.36300
N163        N  0.27106007  0.16711715  0.30274817    -0.44000
N164        N  0.10061326  0.33547393  0.24590914    -0.44000
C165        C  0.39488863  0.24815624  0.25659819    -0.00400
C166        C  0.42467261  0.21390476  0.25527621    -0.12300
C167        C  0.46455932  0.21545544  0.26853931     0.01900
C168        C  0.47583728  0.25126921  0.28459704    -0.00500
C169        C  0.44692816  0.28627792  0.28505016    -0.12200
C170        C  0.40692565  0.28467221  0.27191969     0.01700
H171        H  0.41753451  0.18502557  0.24435323     0.14700
H172        H  0.45488820  0.31576807  0.29529307     0.14700
C173        C  0.37864261  0.32129888  0.27491441     0.36400
C174        C  0.49323835  0.17918558  0.26531601     0.36300
N175        N  0.35606760  0.01729387  0.27747185    -0.44000
N176        N  0.51619209  0.15015449  0.26273696    -0.44000
C177        C  0.06301420  0.08174886  0.75936834    -0.00400
C178        C  0.06453282  0.08096013  0.78725683    -0.12300
C179        C  0.10427401  0.08166772  0.80068200     0.01900
C180        C  0.14501488  0.08293139  0.78656312    -0.00500
C181        C  0.14349874  0.08379783  0.75868318    -0.12200
C182        C  0.10378827  0.08309873  0.74524012     0.01700
H183        H  0.03519095  0.07907673  0.79929860     0.14700
H184        H  0.17293761  0.08504868  0.74660343     0.14700
C185        C  0.10675615  0.08394101  0.71666512     0.36400
C186        C  0.10146372  0.08070495  0.82925323     0.36300
N187        N  0.11046987  0.08500999  0.69383718    -0.44000
N188        N  0.09811042  0.07988288  0.85209708    -0.44000
C189        C  0.31275986  0.08207344  0.78582002    -0.00400
C190        C  0.33807953  0.12024122  0.78256660    -0.12300
C191        C  0.37925427  0.11966738  0.76972890     0.01900
C192        C  0.39537961  0.08036760  0.75987960    -0.00500
C193        C  0.36969599  0.04233693  0.76266345    -0.12200
C194        C  0.32852625  0.04293448  0.77551071     0.01700
H195        H  0.32529077  0.15059436  0.78963329     0.14700
H196        H  0.38204743  0.01213367  0.75504174     0.14700
C197        C  0.30300646  0.00308738  0.77800391     0.36400
C198        C  0.40396628  0.15984197  0.76625539     0.36300
N199        N  0.28246720  0.97121421  0.78010142    -0.44000
N200        N  0.42375796  0.19201657  0.76332714    -0.44000
C201        C  0.23353068  0.14287755  0.86132433    -0.00400
C202        C  0.19717992  0.13919685  0.87887604    -0.12300
C203        C  0.19958459  0.15316479  0.90515744     0.01900
C204        C  0.23929936  0.17130032  0.91455712    -0.00500
C205        C  0.27572607  0.17447258  0.89694724    -0.12200
C206        C  0.27309392  0.16080571  0.87066625     0.01700
H207        H  0.16694450  0.12428851  0.87224993     0.14700
H208        H  0.30624613  0.18922617  0.90336816     0.14700
C209        C  0.31118595  0.16721101  0.85350649     0.36400
C210        C  0.16075637  0.14801791  0.92186543     0.36300
N211        N  0.34207421  0.17278987  0.84009721    -0.44000
N212        N  0.12946749  0.14390344  0.93511509    -0.44000
C213        C  0.23276511  0.02161938  0.86039829    -0.00400
C214        C  0.19694739  0.02427927  0.87821459    -0.12300
C215        C  0.19980658  0.01051943  0.90454331     0.01900
C216        C  0.23931468  0.32657496  0.91362574    -0.00500
C217        C  0.27512154  0.32385997  0.89564177    -0.12200
C218        C  0.27215647  0.33775888  0.86934424     0.01700
H219        H  0.16697084  0.03873790  0.87183143     0.14700
H220        H  0.30541538  0.30971057  0.90187168     0.14700
C221        C  0.30986025  0.33325693  0.85186567     0.36400
C222        C  0.16184166  0.01554528  0.92172343     0.36300
N223        N  0.34034170  0.32960578  0.83808451    -0.44000
N224        N  0.13125158  0.01967600  0.93535283    -0.44000
C225        C  0.28172116  0.15946330  0.13254175    -0.00400
C226        C  0.24841468  0.15506368  0.15225573    -0.12300
C227        C  0.25534577  0.16858137  0.17829011     0.01900
C228        C  0.29637171  0.18638392  0.18521393    -0.00500
C229        C  0.32969635  0.19049486  0.16570245    -0.12200
C230        C  0.32262572  0.17812423  0.13956031     0.01700
H231        H  0.21712907  0.13994974  0.14757391     0.14700
H232        H  0.36110522  0.20488042  0.17068787     0.14700
C233        C  0.35775379  0.18618584  0.12038429     0.36400
C234        C  0.22028314  0.16292543  0.19778512     0.36300
N235        N  0.38594241  0.19288957  0.10508158    -0.44000
N236        N  0.19234270  0.15857071  0.21352325    -0.44000
C237        C  0.30177287  0.30771917  0.18366485    -0.00400
C238        C  0.26004690  0.98972803  0.17823651    -0.12300
C239        C  0.24980525  0.00512457  0.15306447     0.01900
C240        C  0.28171019  0.00479037  0.13220603    -0.00500
C241        C  0.32355577  0.32277528  0.13768478    -0.12200
C242        C  0.33397179  0.30804469  0.16298224     0.01700
H243        H  0.23509648  0.98971703  0.19385329     0.14700
H244        H  0.34872761  0.32284290  0.12217337     0.14700
C245        C  0.37778490  0.29274506  0.16660066     0.36400
C246        C  0.20677236  0.02263278  0.14986903     0.36300
N247        N  0.41306120  0.28075168  0.16930816    -0.44000
N248        N  0.17231217  0.03682897  0.14750882    -0.44000
O249        O  0.29541488  0.36978722  0.03646107    -0.73200
O250        O  0.30834917  0.46107839  0.09238267    -0.74200
O251        O  0.30845627  0.37202907  0.09219259    -0.62800
O252        O  0.29531903  0.46484956  0.03678307    -0.71200
O253        O  0.22336317  0.46352322  0.04389773    -0.70700
O254        O  0.23656336  0.36991302  0.09922683    -0.62000
O255        O  0.23655162  0.45926026  0.09990113    -0.74500
O256        O  0.22339440  0.36794209  0.04327046    -0.73300
Cu257      Cu  0.30416521  0.41699935  0.06374744     1.04600
Cu258      Cu  0.22734735  0.41509940  0.07135004     1.04300
C259        C  0.25773071  0.35249299  0.03213722     0.93000
C260        C  0.27509595  0.47139068  0.10657684     0.92200
C261        C  0.27498649  0.35983478  0.10624422     0.84300
C262        C  0.25768738  0.48076669  0.03272537     0.90600
C263        C  0.18901295  0.41653059  0.80121128     0.86300
C264        C  0.19352001  0.37664471  0.81953139    -0.54000
C265        C  0.23052797  0.37747126  0.83442000     0.09200
C266        C  0.26071083  0.41686678  0.82863209     0.20100
C267        C  0.19428029  0.45558299  0.81998115    -0.54700
C268        C  0.23118618  0.45504992  0.83495030     0.09300
C269        C  0.23175394  0.41735455  0.78426579    -0.54200
C270        C  0.26879574  0.41745859  0.79860145     0.09900
H271        H  0.16741787  0.35250527  0.82265780     0.14400
H272        H  0.29138007  0.41695108  0.83999266     0.00100
H273        H  0.16852443  0.47868890  0.82339668     0.14700
H274        H  0.23427879  0.41691697  0.76292960     0.14500
O275        O  0.28030627  0.53898687  0.94864086    -0.73200
O276        O  0.28910902  0.63178545  0.00411629    -0.74200
O277        O  0.28907475  0.53671371  0.00465728    -0.62800
O278        O  0.28048232  0.62823616  0.94807592    -0.71200
O279        O  0.20816607  0.62660989  0.95304197    -0.70700
O280        O  0.21674963  0.53470863  0.00992702    -0.62000
O281        O  0.21679681  0.63030059  0.00938474    -0.74500
O282        O  0.20800743  0.53720669  0.95355257    -0.73300
Cu283      Cu  0.28722145  0.58400595  0.97666905     1.04600
Cu284      Cu  0.20998404  0.58217282  0.98212624     1.04300
C285        C  0.24260456  0.52661925  0.94065355     0.93000
C286        C  0.25428086  0.64753851  0.01440986     0.92200
C287        C  0.25424208  0.51925689  0.01503696     0.84300
C288        C  0.24276180  0.63860422  0.93997348     0.90600
C289        C  0.35102266  0.57978657  0.24189321     0.86300
C290        C  0.34183262  0.54001467  0.22395724    -0.54000
C291        C  0.30290170  0.54129612  0.21107030     0.09200
C292        C  0.27626249  0.58111192  0.21781171     0.20100
C293        C  0.34635310  0.61848250  0.22274115    -0.54700
C294        C  0.30775488  0.61847932  0.20948067     0.09300
C295        C  0.31077824  0.58134138  0.26066363    -0.54200
C296        C  0.27156721  0.58189264  0.24821426     0.09900
H297        H  0.36563483  0.51630261  0.21831966     0.14400
H298        H  0.24441893  0.58151292  0.20764933     0.00100
H299        H  0.37299988  0.64154090  0.21841982     0.14700
H300        H  0.31336302  0.58262407  0.28202560     0.14500
O301        O  0.46011567  0.53935363  0.59271581    -0.73200
O302        O  0.47062016  0.63276976  0.53630180    -0.74200
O303        O  0.47285742  0.53735508  0.53650679    -0.62800
O304        O  0.45707545  0.62821226  0.59265763    -0.71200
O305        O  0.02928555  0.63298264  0.59685644    -0.70700
O306        O  0.04471799  0.53979795  0.54205558    -0.62000
O307        O  0.04269038  0.63459588  0.54105953    -0.74500
O308        O  0.03212471  0.54426592  0.59805017    -0.73300
Cu309      Cu  0.46273222  0.58429688  0.56385774     1.04600
Cu310      Cu  0.03971739  0.58800554  0.56918762     1.04300
C311        C  0.49410379  0.53116105  0.60602919     0.93000
C312        C  0.00837141  0.65022659  0.53100276     0.92200
C313        C  0.01086193  0.52211612  0.53170886     0.84300
C314        C  0.49060359  0.64161647  0.60517150     0.90600
O315        O  0.47976038  0.37152501  0.50236786    -0.73200
O316        O  0.49871587  0.46688378  0.44801857    -0.74200
O317        O  0.49676932  0.37763711  0.44648088    -0.62800
O318        O  0.48162279  0.46678833  0.50357782    -0.71200
O319        O  0.05340201  0.46817541  0.50947842    -0.70700
O320        O  0.06816244  0.37585255  0.45390916    -0.62000
O321        O  0.07062455  0.46495529  0.45373318    -0.74500
O322        O  0.05119555  0.37303136  0.50951794    -0.73300
Cu323      Cu  0.48660263  0.42064748  0.47533629     1.04600
Cu324      Cu  0.06314914  0.42050238  0.48239349     1.04300
C325        C  0.01310896  0.35561822  0.51348718     0.93000
C326        C  0.03790949  0.47735050  0.44062228     0.92200
C327        C  0.03533217  0.36609595  0.43969260     0.84300
C328        C  0.01553307  0.48385266  0.51417705     0.90600
C329        C  0.51769861  0.58454111  0.30124337     0.86300
C330        C  0.52013468  0.54395753  0.31880940    -0.54000
C331        C  0.05656831  0.54222956  0.33392275     0.09200
C332        C  0.08864173  0.58088941  0.32896106     0.20100
C333        C  0.52370262  0.62165899  0.32139521    -0.54700
C334        C  0.06059526  0.61991456  0.33666177     0.09300
C335        C  0.05997123  0.58543573  0.28450533    -0.54200
C336        C  0.09733925  0.58407713  0.29872595     0.09900
H337        H  0.49177748  0.52260080  0.32248887     0.14400
H338        H  0.11981937  0.57830359  0.33922339     0.00100
H339        H  0.49705744  0.64232366  0.32670157     0.14700
H340        H  0.05999625  0.58606838  0.26303780     0.14500
C341        C  0.01893380  0.41308923  0.74478105     0.86300
C342        C  0.01431751  0.37207799  0.72775135    -0.54000
C343        C  0.97781935  0.37041481  0.71251772     0.09200
C344        C  0.44751005  0.40860178  0.71736581     0.20100
C345        C  0.01371095  0.45073649  0.72487364    -0.54700
C346        C  0.97682027  0.44817218  0.70944449     0.09300
C347        C  0.97641249  0.41388502  0.76166577    -0.54200
C348        C  0.43952378  0.41150329  0.74733088     0.09900
H349        H  0.04125851  0.35020372  0.72456938     0.14400
H350        H  0.41564747  0.40521896  0.70787591     0.00100
H351        H  0.04003961  0.47444384  0.72179627     0.14700
H352        H  0.97391872  0.41726335  0.78285742     0.14500
C353        C  0.04291217  0.34593011  0.41361053    -0.00400
C354        C  0.07341185  0.64651204  0.41088105    -0.12300
C355        C  0.08348609  0.62866215  0.38605497     0.01900
C356        C  0.06225258  0.64370744  0.36288617    -0.00500
C357        C  0.03603105  0.34708493  0.36579149    -0.12200
C358        C  0.02491289  0.36363656  0.39060813     0.01700
H359        H  0.08936900  0.63461239  0.42837297     0.14700
H360        H  0.52285716  0.36275030  0.34858000     0.14700
C361        C  0.49538246  0.39949026  0.39157961     0.36400
C362        C  0.11666006  0.59628084  0.38608587     0.36300
N363        N  0.47141197  0.42795407  0.39200019    -0.44000
N364        N  0.14388244  0.57090705  0.38722535    -0.44000
C365        C  0.04553232  0.49824713  0.41459845    -0.00400
C366        C  0.07690112  0.48019584  0.39729864    -0.12300
C367        C  0.08005006  0.49279837  0.37063628     0.01900
C368        C  0.05155014  0.52389812  0.36099490    -0.00500
C369        C  0.02031870  0.54202993  0.37832311    -0.12200
C370        C  0.01748849  0.52987899  0.40497479     0.01700
H371        H  0.09777044  0.45484375  0.40434608     0.14700
H372        H  0.99897886  0.56689886  0.37116844     0.14700
C373        C  0.98682713  0.55148481  0.42225918     0.36400
C374        C  0.11195786  0.47286453  0.35340917     0.36300
N375        N  0.46259862  0.56916402  0.43616061    -0.44000
N376        N  0.13739764  0.45674017  0.33955736    -0.44000
C377        C  0.98118547  0.35254227  0.68534282    -0.00400
C378        C  0.01341258  0.37037366  0.66787991    -0.12300
C379        C  0.01548273  0.35867824  0.64123880     0.01900
C380        C  0.98470134  0.66183069  0.63143412    -0.00500
C381        C  0.45163347  0.64474779  0.64874307    -0.12200
C382        C  0.44969533  0.65658018  0.67550951     0.01700
H383        H  0.03624776  0.39471881  0.67492803     0.14700
H384        H  0.42825608  0.62078574  0.64162199     0.14700
C385        C  0.41539888  0.63823465  0.69256719     0.36400
C386        C  0.04899705  0.37873232  0.62429761     0.36300
N387        N  0.38791014  0.62360226  0.70628486    -0.44000
N388        N  0.07583313  0.39483849  0.61071479    -0.42400
C389        C  0.98883780  0.51053541  0.63231855    -0.00400
C390        C  0.45772078  0.47724995  0.63611983    -0.12300
C391        C  0.44980779  0.45846010  0.66111015     0.01900
C392        C  0.97436073  0.47271564  0.68340431    -0.00500
C393        C  0.00213764  0.50949176  0.67956989    -0.12200
C394        C  0.01022272  0.52770001  0.65451155     0.01700
H395        H  0.43935018  0.46578224  0.61929871     0.14700
H396        H  0.01829630  0.52440586  0.69613015     0.14700
C397        C  0.03974694  0.56494406  0.65248934     0.36400
C398        C  0.41506803  0.42608502  0.66201350     0.36300
N399        N  0.06356974  0.59464406  0.65114720    -0.44000
N400        N  0.38637752  0.40089996  0.66150860    -0.44000
C401        C  0.22795210  0.58306197  0.26235194    -0.00400
C402        C  0.19637613  0.61118703  0.25288983    -0.12300
C403        C  0.15425424  0.61259895  0.26452252     0.01900
C404        C  0.14242367  0.58492350  0.28612971    -0.00500
C405        C  0.17430478  0.55722748  0.29589605    -0.12200
C406        C  0.21658055  0.55598299  0.28427610     0.01700
H407        H  0.20480651  0.63271055  0.23644099     0.14700
H408        H  0.16587752  0.53550798  0.31224848     0.14700
C409        C  0.24678607  0.52510749  0.29450635     0.36400
C410        C  0.12449664  0.64388133  0.25426714     0.36300
N411        N  0.27106037  0.50045106  0.30274876    -0.44000
N412        N  0.10061362  0.66880738  0.24590915    -0.44000
C413        C  0.39488871  0.58148954  0.25659809    -0.00400
C414        C  0.42467262  0.54723783  0.25527599    -0.12300
C415        C  0.46455944  0.54878878  0.26853916     0.01900
C416        C  0.47583737  0.58460257  0.28459687    -0.00500
C417        C  0.44692827  0.61961122  0.28504996    -0.12200
C418        C  0.40692573  0.61800552  0.27191956     0.01700
H419        H  0.41753491  0.51835983  0.24435361     0.14700
H420        H  0.45488838  0.64910161  0.29529293     0.14700
C421        C  0.37864264  0.65463209  0.27491435     0.36400
C422        C  0.49323840  0.51251882  0.26531592     0.36300
N423        N  0.35606763  0.35062732  0.27747185    -0.44000
N424        N  0.51619212  0.48348772  0.26273691    -0.44000
C425        C  0.06301446  0.41508146  0.75936822    -0.00400
C426        C  0.06453308  0.41429301  0.78725670    -0.12300
C427        C  0.10427423  0.41500071  0.80068193     0.01900
C428        C  0.14501510  0.41626423  0.78656303    -0.00500
C429        C  0.14349904  0.41713022  0.75868309    -0.12200
C430        C  0.10378853  0.41643101  0.74524001     0.01700
H431        H  0.03519090  0.41240976  0.79929854     0.14700
H432        H  0.17293772  0.41838073  0.74660338     0.14700
C433        C  0.10675645  0.41727287  0.71666505     0.36400
C434        C  0.10146386  0.41403818  0.82925310     0.36300
N435        N  0.11047024  0.41834152  0.69383707    -0.44000
N436        N  0.09811048  0.41321640  0.85209702    -0.44000
C437        C  0.31276007  0.41540657  0.78581997    -0.00400
C438        C  0.33807955  0.45357473  0.78256658    -0.12300
C439        C  0.37925445  0.45300055  0.76972877     0.01900
C440        C  0.39537981  0.41370083  0.75987955    -0.00500
C441        C  0.36969631  0.37566991  0.76266339    -0.12200
C442        C  0.32852643  0.37626769  0.77551068     0.01700
H443        H  0.32529139  0.48392633  0.78963287     0.14700
H444        H  0.38204735  0.34546762  0.75504195     0.14700
C445        C  0.30300664  0.33642062  0.77800371     0.36400
C446        C  0.40396634  0.49317523  0.76625514     0.36300
N447        N  0.28246726  0.30454745  0.78010104    -0.44000
N448        N  0.42375801  0.52534982  0.76332677    -0.44000
C449        C  0.23353064  0.47621021  0.86132443    -0.00400
C450        C  0.19718029  0.47253006  0.87887616    -0.12300
C451        C  0.19958429  0.48649780  0.90515741     0.01900
C452        C  0.23929917  0.50463316  0.91455722    -0.00500
C453        C  0.27572598  0.50780503  0.89694745    -0.12200
C454        C  0.27309401  0.49413817  0.87066647     0.01700
H455        H  0.16694227  0.45762065  0.87224940     0.14700
H456        H  0.30624637  0.52255852  0.90336850     0.14700
C457        C  0.31118620  0.50054316  0.85350680     0.36400
C458        C  0.16075592  0.48135135  0.92186532     0.36300
N459        N  0.34207459  0.50612174  0.84009760    -0.44000
N460        N  0.12946693  0.47723722  0.93511485    -0.44000
C461        C  0.23276518  0.35495223  0.86039811    -0.00400
C462        C  0.19694779  0.35761223  0.87821447    -0.12300
C463        C  0.19980665  0.34385282  0.90454315     0.01900
C464        C  0.23931468  0.65990831  0.91362581    -0.00500
C465        C  0.27512149  0.65719366  0.89564187    -0.12200
C466        C  0.27215665  0.67109271  0.86934441     0.01700
H467        H  0.16696983  0.37207163  0.87183092     0.14700
H468        H  0.30541601  0.64304393  0.90187192     0.14700
C469        C  0.30986049  0.66659093  0.85186588     0.36400
C470        C  0.16184180  0.34887902  0.92172331     0.36300
N471        N  0.34034201  0.66293995  0.83808476    -0.44000
N472        N  0.13125183  0.35301012  0.93535270    -0.44000
C473        C  0.28172098  0.49279660  0.13254174    -0.00400
C474        C  0.24841452  0.48839696  0.15225574    -0.12300
C475        C  0.25534565  0.50191471  0.17829012     0.01900
C476        C  0.29637164  0.51971722  0.18521390    -0.00500
C477        C  0.32969614  0.52382829  0.16570237    -0.12200
C478        C  0.32262549  0.51145771  0.13956023     0.01700
H479        H  0.21712906  0.47328304  0.14757397     0.14700
H480        H  0.36110522  0.53821407  0.17068780     0.14700
C481        C  0.35775335  0.51951962  0.12038415     0.36400
C482        C  0.22028308  0.49625881  0.19778512     0.36300
N483        N  0.38594183  0.52622364  0.10508136    -0.44000
N484        N  0.19234258  0.49190418  0.21352330    -0.44000
C485        C  0.30177272  0.64105220  0.18366478    -0.00400
C486        C  0.26004744  0.32306196  0.17823649    -0.12300
C487        C  0.24980542  0.33845839  0.15306462     0.01900
C488        C  0.28171019  0.33812380  0.13220608    -0.00500
C489        C  0.32355578  0.65610826  0.13768469    -0.12200
C490        C  0.33397169  0.64137772  0.16298223     0.01700
H491        H  0.23509588  0.32305123  0.19385417     0.14700
H492        H  0.34872739  0.65617596  0.12217351     0.14700
C493        C  0.37778485  0.62607834  0.16660072     0.36400
C494        C  0.20677265  0.35596680  0.14986920     0.36300
N495        N  0.41306121  0.61408511  0.16930836    -0.44000
N496        N  0.17231249  0.37016315  0.14750903    -0.44000
O497        O  0.29541501  0.70312041  0.03646103    -0.73200
O498        O  0.30834926  0.79441154  0.09238273    -0.74200
O499        O  0.30845635  0.70536216  0.09219255    -0.62800
O500        O  0.29531925  0.79818281  0.03678310    -0.71200
O501        O  0.22336341  0.79685654  0.04389779    -0.70700
O502        O  0.23656345  0.70324614  0.09922675    -0.62000
O503        O  0.23655171  0.79259341  0.09990115    -0.74500
O504        O  0.22339454  0.70127545  0.04327037    -0.73300
Cu505      Cu  0.30416533  0.75033254  0.06374745     1.04600
Cu506      Cu  0.22734753  0.74843264  0.07135002     1.04300
C507        C  0.25773083  0.68582624  0.03213716     0.93000
C508        C  0.27509605  0.80472383  0.10657688     0.92200
C509        C  0.27498656  0.69316782  0.10624414     0.84300
C510        C  0.25768766  0.81410004  0.03272543     0.90600
C511        C  0.18901311  0.74986426  0.80121133     0.86300
C512        C  0.19352012  0.70997846  0.81953152    -0.54000
C513        C  0.23052808  0.71080502  0.83442013     0.09200
C514        C  0.26071104  0.75020048  0.82863215     0.20100
C515        C  0.19428039  0.78891686  0.81998114    -0.54700
C516        C  0.23118643  0.78838368  0.83495027     0.09300
C517        C  0.23175406  0.75068798  0.78426585    -0.54200
C518        C  0.26879588  0.75079208  0.79860149     0.09900
H519        H  0.16741799  0.68583902  0.82265794     0.14400
H520        H  0.29138010  0.75028483  0.83999263     0.00100
H521        H  0.16852521  0.81202218  0.82339657     0.14700
H522        H  0.23427888  0.75025001  0.76292963     0.14500
O523        O  0.28030656  0.87232027  0.94864096    -0.73200
O524        O  0.28910915  0.96511890  0.00411639    -0.74200
O525        O  0.28907504  0.87004711  0.00465736    -0.62800
O526        O  0.28048248  0.96156952  0.94807593    -0.71200
O527        O  0.20816623  0.95994322  0.95304206    -0.70700
O528        O  0.21674992  0.86804206  0.00992717    -0.62000
O529        O  0.21679693  0.96363399  0.00938485    -0.74500
O530        O  0.20800771  0.87053999  0.95355267    -0.73300
Cu531      Cu  0.28722170  0.91733938  0.97666913     1.04600
Cu532      Cu  0.20998424  0.91550618  0.98212636     1.04300
C533        C  0.24260484  0.85995264  0.94065363     0.93000
C534        C  0.25428097  0.98087194  0.01440995     0.92200
C535        C  0.25424233  0.85259029  0.01503707     0.84300
C536        C  0.24276189  0.97193755  0.93997352     0.90600
C537        C  0.35102263  0.91311983  0.24189324     0.86300
C538        C  0.34183260  0.87334797  0.22395726    -0.54000
C539        C  0.30290176  0.87462938  0.21107030     0.09200
C540        C  0.27626247  0.91444519  0.21781166     0.20100
C541        C  0.34635324  0.95181591  0.22274115    -0.54700
C542        C  0.30775488  0.95181256  0.20948066     0.09300
C543        C  0.31077817  0.91467463  0.26066361    -0.54200
C544        C  0.27156717  0.91522591  0.24821423     0.09900
H545        H  0.36563509  0.84963570  0.21831968     0.14400
H546        H  0.24441906  0.91484616  0.20764932     0.00100
H547        H  0.37299918  0.97487371  0.21842003     0.14700
H548        H  0.31336288  0.91595723  0.28202572     0.14500
O549        O  0.46011535  0.87268667  0.59271578    -0.73200
O550        O  0.47062025  0.96610307  0.53630185    -0.74200
O551        O  0.47285737  0.87068827  0.53650676    -0.62800
O552        O  0.45707530  0.96154533  0.59265774    -0.71200
O553        O  0.02928539  0.96631556  0.59685664    -0.70700
O554        O  0.04471796  0.87313106  0.54205562    -0.62000
O555        O  0.04269044  0.96792912  0.54105967    -0.74500
O556        O  0.03212446  0.87759881  0.59805021    -0.73300
Cu557      Cu  0.46273211  0.91763005  0.56385775     1.04600
Cu558      Cu  0.03971728  0.92133859  0.56918773     1.04300
C559        C  0.49410341  0.86449406  0.60602921     0.93000
C560        C  0.00837148  0.98355988  0.53100287     0.92200
C561        C  0.01086194  0.85544931  0.53170882     0.84300
C562        C  0.49060339  0.97494946  0.60517166     0.90600
O563        O  0.47976035  0.70485819  0.50236787    -0.73200
O564        O  0.49871583  0.80021686  0.44801854    -0.74200
O565        O  0.49676921  0.71097022  0.44648089    -0.62800
O566        O  0.48162279  0.80012152  0.50357780    -0.71200
O567        O  0.05340201  0.80150855  0.50947838    -0.70700
O568        O  0.06816230  0.70918562  0.45390914    -0.62000
O569        O  0.07062455  0.79828837  0.45373314    -0.74500
O570        O  0.05119548  0.70636454  0.50951792    -0.73300
Cu571      Cu  0.48660258  0.75398062  0.47533628     1.04600
Cu572      Cu  0.06314906  0.75383549  0.48239346     1.04300
C573        C  0.01310885  0.68895141  0.51348716     0.93000
C574        C  0.03790949  0.81068358  0.44062221     0.92200
C575        C  0.03533202  0.69942904  0.43969259     0.84300
C576        C  0.01553309  0.81718586  0.51417699     0.90600
C577        C  0.51769867  0.91787442  0.30124339     0.86300
C578        C  0.52013460  0.87729061  0.31880938    -0.54000
C579        C  0.05656843  0.87556274  0.33392268     0.09200
C580        C  0.08864197  0.91422261  0.32896113     0.20100
C581        C  0.52370264  0.95499221  0.32139531    -0.54700
C582        C  0.06059531  0.95324770  0.33666183     0.09300
C583        C  0.05997129  0.91876918  0.28450552    -0.54200
C584        C  0.09733927  0.91741050  0.29872592     0.09900
H585        H  0.49177832  0.85593453  0.32248869     0.14400
H586        H  0.11981887  0.91163683  0.33922313     0.00100
H587        H  0.49705756  0.97565682  0.32670165     0.14700
H588        H  0.05999636  0.91940209  0.26303706     0.14500
C589        C  0.01893382  0.74642290  0.74478111     0.86300
C590        C  0.01431822  0.70541156  0.72775132    -0.54000
C591        C  0.97781974  0.70374830  0.71251774     0.09200
C592        C  0.44751014  0.74193484  0.71736590     0.20100
C593        C  0.01371074  0.78407034  0.72487383    -0.54700
C594        C  0.97681991  0.78150559  0.70944464     0.09300
C595        C  0.97641256  0.74721821  0.76166613    -0.54200
C596        C  0.43952384  0.74483610  0.74733095     0.09900
H597        H  0.04125821  0.68353851  0.72456944     0.14400
H598        H  0.41564752  0.73855176  0.70787597     0.00100
H599        H  0.04003844  0.80777733  0.72179664     0.14700
H600        H  0.97391873  0.75059637  0.78285646     0.14500
C601        C  0.04291204  0.67926320  0.41361053    -0.00400
C602        C  0.07341198  0.97984544  0.41088094    -0.12300
C603        C  0.08348623  0.96199526  0.38605507     0.01900
C604        C  0.06225270  0.97704061  0.36288623    -0.00500
C605        C  0.03603089  0.68041800  0.36579153    -0.12200
C606        C  0.02491266  0.69696964  0.39060814     0.01700
H607        H  0.08936997  0.96794523  0.42837372     0.14700
H608        H  0.52285682  0.69608357  0.34857989     0.14700
C609        C  0.49538222  0.73282329  0.39157963     0.36400
C610        C  0.11666005  0.92961392  0.38608592     0.36300
N611        N  0.47141169  0.76128715  0.39200019    -0.44000
N612        N  0.14388245  0.90424003  0.38722535    -0.44000
C613        C  0.04553236  0.83158017  0.41459839    -0.00400
C614        C  0.07690108  0.81352900  0.39729856    -0.12300
C615        C  0.08005014  0.82613140  0.37063621     0.01900
C616        C  0.05155022  0.85723122  0.36099484    -0.00500
C617        C  0.02031871  0.87536305  0.37832301    -0.12200
C618        C  0.01748848  0.86321200  0.40497470     0.01700
H619        H  0.09777085  0.78817640  0.40434613     0.14700
H620        H  0.99897911  0.90023172  0.37116840     0.14700
C621        C  0.98682706  0.88481786  0.42225908     0.36400
C622        C  0.11195773  0.80619749  0.35340913     0.36300
N623        N  0.46259839  0.90249703  0.43616042    -0.44000
N624        N  0.13739747  0.79007290  0.33955725    -0.44000
C625        C  0.98118596  0.68587579  0.68534286    -0.00400
C626        C  0.01341276  0.70370686  0.66787984    -0.12300
C627        C  0.01548312  0.69201167  0.64123881     0.01900
C628        C  0.98470114  0.99516368  0.63143428    -0.00500
C629        C  0.45163322  0.97808069  0.64874323    -0.12200
C630        C  0.44969508  0.98991334  0.67550968     0.01700
H631        H  0.03624933  0.72805334  0.67492835     0.14700
H632        H  0.42825623  0.95411884  0.64162228     0.14700
C633        C  0.41539871  0.97156778  0.69256737     0.36400
C634        C  0.04899733  0.71206561  0.62429755     0.36300
N635        N  0.38790999  0.95693535  0.70628510    -0.44000
N636        N  0.07583338  0.72817169  0.61071461    -0.42400
C637        C  0.98883732  0.84386846  0.63231856    -0.00400
C638        C  0.45772053  0.81058325  0.63612017    -0.12300
C639        C  0.44980733  0.79179327  0.66111023     0.01900
C640        C  0.97436035  0.80604901  0.68340444    -0.00500
C641        C  0.00213716  0.84282495  0.67956979    -0.12200
C642        C  0.01022237  0.86103310  0.65451155     0.01700
H643        H  0.43934852  0.79911476  0.61929786     0.14700
H644        H  0.01829642  0.85773961  0.69613056     0.14700
C645        C  0.03974679  0.89827706  0.65248923     0.36400
C646        C  0.41506754  0.75941821  0.66201370     0.36300
N647        N  0.06356968  0.92797686  0.65114705    -0.44000
N648        N  0.38637707  0.73423317  0.66150883    -0.44000
C649        C  0.22795204  0.91639524  0.26235185    -0.00400
C650        C  0.19637624  0.94452068  0.25289009    -0.12300
C651        C  0.15425445  0.94593273  0.26452275     0.01900
C652        C  0.14242369  0.91825681  0.28612975    -0.00500
C653        C  0.17430468  0.89056059  0.29589559    -0.12200
C654        C  0.21658028  0.88931578  0.28427583     0.01700
H655        H  0.20480701  0.96604501  0.23644106     0.14700
H656        H  0.16587670  0.86883944  0.31224885     0.14700
C657        C  0.24678564  0.85843982  0.29450575     0.36400
C658        C  0.12449692  0.97721559  0.25426769     0.36300
N659        N  0.27105974  0.83378306  0.30274794    -0.44000
N660        N  0.10061406  0.00214187  0.24590999    -0.44000
C661        C  0.39488870  0.91482282  0.25659812    -0.00400
C662        C  0.42467277  0.88057144  0.25527602    -0.12300
C663        C  0.46455955  0.88212218  0.26853908     0.01900
C664        C  0.47583739  0.91793595  0.28459691    -0.00500
C665        C  0.44692814  0.95294433  0.28505003    -0.12200
C666        C  0.40692567  0.95133883  0.27191967     0.01700
H667        H  0.41753481  0.85169245  0.24435307     0.14700
H668        H  0.45488844  0.98243547  0.29529342     0.14700
C669        C  0.37864261  0.98796538  0.27491439     0.36400
C670        C  0.49323865  0.84585247  0.26531569     0.36300
N671        N  0.35606757  0.68396048  0.27747187    -0.44000
N672        N  0.51619253  0.81682142  0.26273653    -0.44000
C673        C  0.06301453  0.74841535  0.75936830    -0.00400
C674        C  0.06453320  0.74762650  0.78725677    -0.12300
C675        C  0.10427436  0.74833419  0.80068197     0.01900
C676        C  0.14501523  0.74959801  0.78656308    -0.00500
C677        C  0.14349911  0.75046463  0.75868315    -0.12200
C678        C  0.10378860  0.74976547  0.74524007     0.01700
H679        H  0.03519116  0.74574293  0.79929861     0.14700
H680        H  0.17293790  0.75171577  0.74660341     0.14700
C681        C  0.10675648  0.75060800  0.71666511     0.36400
C682        C  0.10146406  0.74737144  0.82925317     0.36300
N683        N  0.11047023  0.75167721  0.69383712    -0.44000
N684        N  0.09811075  0.74654950  0.85209705    -0.44000
C685        C  0.31276019  0.74873986  0.78582004    -0.00400
C686        C  0.33807979  0.78690787  0.78256649    -0.12300
C687        C  0.37925455  0.78633357  0.76972869     0.01900
C688        C  0.39537993  0.74703376  0.75987963    -0.00500
C689        C  0.36969631  0.70900299  0.76266364    -0.12200
C690        C  0.32852649  0.70960083  0.77551088     0.01700
H691        H  0.32529148  0.81725998  0.78963281     0.14700
H692        H  0.38204755  0.67880007  0.75504216     0.14700
C693        C  0.30300653  0.66975388  0.77800402     0.36400
C694        C  0.40396658  0.82650831  0.76625488     0.36300
N695        N  0.28246699  0.63788081  0.78010147    -0.44000
N696        N  0.42375815  0.85868269  0.76332634    -0.44000
C697        C  0.23353083  0.80954397  0.86132441    -0.00400
C698        C  0.19718057  0.80586356  0.87887618    -0.12300
C699        C  0.19958459  0.81983122  0.90515747     0.01900
C700        C  0.23929951  0.83796670  0.91455725    -0.00500
C701        C  0.27572605  0.84113873  0.89694740    -0.12200
C702        C  0.27309421  0.82747209  0.87066642     0.01700
H703        H  0.16694264  0.79095408  0.87224946     0.14700
H704        H  0.30624713  0.85589265  0.90336859     0.14700
C705        C  0.31118615  0.83387737  0.85350669     0.36400
C706        C  0.16075635  0.81468460  0.92186538     0.36300
N707        N  0.34207446  0.83945628  0.84009735    -0.44000
N708        N  0.12946733  0.81057028  0.93511499    -0.44000
C709        C  0.23276534  0.68828601  0.86039826    -0.00400
C710        C  0.19694778  0.69094580  0.87821456    -0.12300
C711        C  0.19980662  0.67718612  0.90454322     0.01900
C712        C  0.23931465  0.99324165  0.91362583    -0.00500
C713        C  0.27512146  0.99052697  0.89564185    -0.12200
C714        C  0.27215643  0.00442611  0.86934435     0.01700
H715        H  0.16697014  0.70540493  0.87183108     0.14700
H716        H  0.30541559  0.97637747  0.90187176     0.14700
C717        C  0.30986026  0.99992450  0.85186582     0.36400
C718        C  0.16184161  0.68221193  0.92172331     0.36300
N719        N  0.34034183  0.99627365  0.83808467    -0.44000
N720        N  0.13125149  0.68634261  0.93535265    -0.44000
C721        C  0.28172092  0.82612970  0.13254179    -0.00400
C722        C  0.24841507  0.82173000  0.15225592    -0.12300
C723        C  0.25534580  0.83524755  0.17829019     0.01900
C724        C  0.29637170  0.85305045  0.18521391    -0.00500
C725        C  0.32969627  0.85716187  0.16570236    -0.12200
C726        C  0.32262539  0.84479113  0.13956021     0.01700
H727        H  0.21712756  0.80661482  0.14757386     0.14700
H728        H  0.36110433  0.87154750  0.17068757     0.14700
C729        C  0.35775305  0.85285342  0.12038402     0.36400
C730        C  0.22028344  0.82959133  0.19778536     0.36300
N731        N  0.38594134  0.85955776  0.10508116    -0.44000
N732        N  0.19234328  0.82523635  0.21352363    -0.44000
C733        C  0.30177270  0.97438562  0.18366481    -0.00400
C734        C  0.26004696  0.65639475  0.17823649    -0.12300
C735        C  0.24980527  0.67179111  0.15306441     0.01900
C736        C  0.28171013  0.67145669  0.13220598    -0.00500
C737        C  0.32355563  0.98944209  0.13768493    -0.12200
C738        C  0.33397182  0.97471147  0.16298229     0.01700
H739        H  0.23509661  0.65638397  0.19385330     0.14700
H740        H  0.34872850  0.98950997  0.12217303     0.14700
C741        C  0.37778494  0.95941230  0.16660084     0.36400
C742        C  0.20677238  0.68929923  0.14986893     0.36300
N743        N  0.41306144  0.94741922  0.16930851    -0.44000
N744        N  0.17231214  0.70349535  0.14750862    -0.44000
O745        O  0.79541507  0.03645389  0.03646103    -0.73200
O746        O  0.80834938  0.12774515  0.09238260    -0.74200
O747        O  0.80845636  0.03869579  0.09219260    -0.62800
O748        O  0.79531933  0.13151633  0.03678302    -0.71200
O749        O  0.72336346  0.13018994  0.04389764    -0.70700
O750        O  0.73656345  0.03657981  0.09922682    -0.62000
O751        O  0.73655183  0.12592711  0.09990105    -0.74500
O752        O  0.72339459  0.03460883  0.04327043    -0.73300
Cu753      Cu  0.80416538  0.08366608  0.06374740     1.04600
Cu754      Cu  0.72734752  0.08176618  0.07134999     1.04300
C755        C  0.75773090  0.01915968  0.03213720     0.93000
C756        C  0.77509617  0.13805748  0.10657677     0.92200
C757        C  0.77498655  0.02650150  0.10624422     0.84300
C758        C  0.75768772  0.14743347  0.03272530     0.90600
C759        C  0.68901276  0.08319758  0.80121134     0.86300
C760        C  0.69351970  0.04331181  0.81953159    -0.54000
C761        C  0.73052770  0.04413843  0.83442017     0.09200
C762        C  0.76071086  0.08353385  0.82863220     0.20100
C763        C  0.69428009  0.12225029  0.81998110    -0.54700
C764        C  0.73118613  0.12171710  0.83495020     0.09300
C765        C  0.73175373  0.08402120  0.78426585    -0.54200
C766        C  0.76879553  0.08412535  0.79860147     0.09900
H767        H  0.66741773  0.01917255  0.82265802     0.14400
H768        H  0.79137926  0.08361822  0.83999242     0.00100
H769        H  0.66852511  0.14535552  0.82339647     0.14700
H770        H  0.73427851  0.08358318  0.76292960     0.14500
O771        O  0.78030656  0.20565390  0.94864079    -0.73200
O772        O  0.78910907  0.29845229  0.00411636    -0.74200
O773        O  0.78907505  0.20338056  0.00465723    -0.62800
O774        O  0.78048240  0.29490314  0.94807595    -0.71200
O775        O  0.70816613  0.29327668  0.95304200    -0.70700
O776        O  0.71674992  0.20137539  0.00992701    -0.62000
O777        O  0.71679684  0.29696731  0.00938479    -0.74500
O778        O  0.70800772  0.20387354  0.95355257    -0.73300
Cu779      Cu  0.78722166  0.25067289  0.97666905     1.04600
Cu780      Cu  0.70998418  0.24883959  0.98212627     1.04300
C781        C  0.74260485  0.19328625  0.94065349     0.93000
C782        C  0.75428088  0.31420528  0.01440992     0.92200
C783        C  0.75424235  0.18592368  0.01503692     0.84300
C784        C  0.74276185  0.30527106  0.93997349     0.90600
C785        C  0.85102265  0.24645333  0.24189326     0.86300
C786        C  0.84183259  0.20668152  0.22395728    -0.54000
C787        C  0.80290183  0.20796293  0.21107026     0.09200
C788        C  0.77626264  0.24777876  0.21781165     0.20100
C789        C  0.84635339  0.28514942  0.22274116    -0.54700
C790        C  0.80775501  0.28514612  0.20948066     0.09300
C791        C  0.81077817  0.24800819  0.26066358    -0.54200
C792        C  0.77156718  0.24855946  0.24821418     0.09900
H793        H  0.86563529  0.18296899  0.21831972     0.14400
H794        H  0.74441889  0.24817979  0.20764914     0.00100
H795        H  0.87299936  0.30820708  0.21842000     0.14700
H796        H  0.81336286  0.24929084  0.28202572     0.14500
O797        O  0.96011544  0.20602035  0.59271575    -0.73200
O798        O  0.97062021  0.29943644  0.53630169    -0.74200
O799        O  0.97285750  0.20402171  0.53650673    -0.62800
O800        O  0.95707526  0.29487900  0.59265751    -0.71200
O801        O  0.52928537  0.29964939  0.59685644    -0.70700
O802        O  0.54471809  0.20646463  0.54205560    -0.62000
O803        O  0.54269044  0.30126264  0.54105952    -0.74500
O804        O  0.53212457  0.21093267  0.59805022    -0.73300
Cu805      Cu  0.96273215  0.25096357  0.56385764     1.04600
Cu806      Cu  0.53971734  0.25467229  0.56918764     1.04300
C807        C  0.99410349  0.19782784  0.60602921     0.93000
C808        C  0.50837145  0.31689336  0.53100274     0.92200
C809        C  0.51086207  0.18878279  0.53170881     0.84300
C810        C  0.99060336  0.30828322  0.60517145     0.90600
O811        O  0.97976049  0.03819152  0.50236794    -0.73200
O812        O  0.99871625  0.13355032  0.44801862    -0.74200
O813        O  0.99676960  0.04430363  0.44648094    -0.62800
O814        O  0.98162300  0.13345486  0.50357787    -0.71200
O815        O  0.55340221  0.13484198  0.50947847    -0.70700
O816        O  0.56816272  0.04251907  0.45390919    -0.62000
O817        O  0.57062492  0.13162180  0.45373323    -0.74500
O818        O  0.55119569  0.03969782  0.50951801    -0.73300
Cu819      Cu  0.98660287  0.08731401  0.47533634     1.04600
Cu820      Cu  0.56314937  0.08716888  0.48239355     1.04300
C821        C  0.51310910  0.02228471  0.51348725     0.93000
C822        C  0.53790987  0.14401705  0.44062232     0.92200
C823        C  0.53533244  0.03276249  0.43969263     0.84300
C824        C  0.51553330  0.15051926  0.51417705     0.90600
C825        C  0.01769859  0.25120782  0.30124346     0.86300
C826        C  0.02013465  0.21062412  0.31880957    -0.54000
C827        C  0.55656851  0.20889638  0.33392282     0.09200
C828        C  0.58864191  0.24755620  0.32896110     0.20100
C829        C  0.02370287  0.28832557  0.32139527    -0.54700
C830        C  0.56059534  0.28658137  0.33666177     0.09300
C831        C  0.55997117  0.25210240  0.28450558    -0.54200
C832        C  0.59733922  0.25074387  0.29872590     0.09900
H833        H  0.99177830  0.18926797  0.32248894     0.14400
H834        H  0.61981928  0.24497049  0.33922326     0.00100
H835        H  0.99705667  0.30899098  0.32670182     0.14700
H836        H  0.55999614  0.25273506  0.26303700     0.14500
C837        C  0.51893358  0.07975642  0.74478116     0.86300
C838        C  0.51431752  0.03874521  0.72775146    -0.54000
C839        C  0.47781944  0.03708180  0.71251782     0.09200
C840        C  0.94750991  0.07526856  0.71736589     0.20100
C841        C  0.51371067  0.11740382  0.72487377    -0.54700
C842        C  0.47681994  0.11483913  0.70944459     0.09300
C843        C  0.47641221  0.08055205  0.76166609    -0.54200
C844        C  0.93952356  0.07817002  0.74733092     0.09900
H845        H  0.54125867  0.01687102  0.72456952     0.14400
H846        H  0.91564721  0.07188558  0.70787590     0.00100
H847        H  0.54003842  0.14111065  0.72179658     0.14700
H848        H  0.47391855  0.08393029  0.78285673     0.14500
C849        C  0.54291245  0.01259660  0.41361056    -0.00400
C850        C  0.57341195  0.31317886  0.41088107    -0.12300
C851        C  0.58348616  0.29532898  0.38605498     0.01900
C852        C  0.56225273  0.31037427  0.36288617    -0.00500
C853        C  0.53603116  0.01375126  0.36579158    -0.12200
C854        C  0.52491307  0.03030302  0.39060816     0.01700
H855        H  0.58936901  0.30127926  0.42837291     0.14700
H856        H  0.02285707  0.02941684  0.34857987     0.14700
C857        C  0.99538278  0.06615685  0.39157966     0.36400
C858        C  0.61666025  0.26294777  0.38608586     0.36300
N859        N  0.97141245  0.09462074  0.39200019    -0.44000
N860        N  0.64388274  0.23757411  0.38722533    -0.44000
C861        C  0.54553273  0.16491377  0.41459852    -0.00400
C862        C  0.57690159  0.14686265  0.39729872    -0.12300
C863        C  0.58005057  0.15946521  0.37063634     0.01900
C864        C  0.55155047  0.19056487  0.36099500    -0.00500
C865        C  0.52031888  0.20869671  0.37832317    -0.12200
C866        C  0.51748882  0.19654556  0.40497489     0.01700
H867        H  0.59777108  0.12151055  0.40434616     0.14700
H868        H  0.49897953  0.23356496  0.37116871     0.14700
C869        C  0.48682752  0.21815137  0.42225932     0.36400
C870        C  0.61195832  0.13953153  0.35340928     0.36300
N871        N  0.96259897  0.23583051  0.43616076    -0.44000
N872        N  0.63739828  0.12340717  0.33955739    -0.44000
C873        C  0.48118557  0.01920912  0.68534295    -0.00400
C874        C  0.51341246  0.03704034  0.66787993    -0.12300
C875        C  0.51548272  0.02534482  0.64123891     0.01900
C876        C  0.48470104  0.32849736  0.63143408    -0.00500
C877        C  0.95163301  0.31141446  0.64874296    -0.12200
C878        C  0.94969482  0.32324677  0.67550944     0.01700
H879        H  0.53624827  0.06138636  0.67492819     0.14700
H880        H  0.92825561  0.28745249  0.64162183     0.14700
C881        C  0.91539837  0.30490123  0.69256701     0.36400
C882        C  0.54899690  0.04539893  0.62429756     0.36300
N883        N  0.88790951  0.29026879  0.70628469    -0.44000
N884        N  0.57583274  0.06150501  0.61071464    -0.42400
C885        C  0.48883748  0.17720223  0.63231857    -0.00400
C886        C  0.95772043  0.14391677  0.63611989    -0.12300
C887        C  0.94980750  0.12512690  0.66111019     0.01900
C888        C  0.47436041  0.13938260  0.68340440    -0.00500
C889        C  0.50213713  0.17615866  0.67956985    -0.12200
C890        C  0.51022241  0.19436691  0.65451161     0.01700
H891        H  0.93934984  0.13244900  0.61929873     0.14700
H892        H  0.51829621  0.19107327  0.69613059     0.14700
C893        C  0.53974662  0.23161092  0.65248935     0.36400
C894        C  0.91506792  0.09275155  0.66201353     0.36300
N895        N  0.56356943  0.26131092  0.65114725    -0.44000
N896        N  0.88637768  0.06756631  0.66150859    -0.44000
C897        C  0.72795203  0.24972876  0.26235182    -0.00400
C898        C  0.69637603  0.27785381  0.25288981    -0.12300
C899        C  0.65425416  0.27926571  0.26452246     0.01900
C900        C  0.64242363  0.25159016  0.28612971    -0.00500
C901        C  0.67430487  0.22389449  0.29589565    -0.12200
C902        C  0.71658043  0.22264957  0.28427597     0.01700
H903        H  0.70480652  0.29937764  0.23644082     0.14700
H904        H  0.66587685  0.20217304  0.31224948     0.14700
C905        C  0.74678587  0.19177384  0.29450596     0.36400
C906        C  0.62449644  0.31054801  0.25426712     0.36300
N907        N  0.77106009  0.16711714  0.30274817    -0.44000
N908        N  0.60061328  0.33547392  0.24590914    -0.44000
C909        C  0.89488865  0.24815625  0.25659819    -0.00400
C910        C  0.92467264  0.21390480  0.25527622    -0.12300
C911        C  0.96455933  0.21545545  0.26853931     0.01900
C912        C  0.97583728  0.25126924  0.28459708    -0.00500
C913        C  0.94692808  0.28627772  0.28505013    -0.12200
C914        C  0.90692567  0.28467223  0.27191974     0.01700
H915        H  0.91753452  0.18502555  0.24435320     0.14700
H916        H  0.95488844  0.31576884  0.29529350     0.14700
C917        C  0.87864258  0.32129886  0.27491450     0.36400
C918        C  0.99323836  0.17918559  0.26531602     0.36300
N919        N  0.85606762  0.01729385  0.27747199    -0.44000
N920        N  0.01619208  0.15015448  0.26273696    -0.44000
C921        C  0.56301415  0.08174885  0.75936839    -0.00400
C922        C  0.56453318  0.08096015  0.78725672    -0.12300
C923        C  0.60427396  0.08166771  0.80068205     0.01900
C924        C  0.64501489  0.08293136  0.78656312    -0.00500
C925        C  0.64349873  0.08379783  0.75868321    -0.12200
C926        C  0.60378828  0.08309874  0.74524014     0.01700
H927        H  0.53518922  0.07907665  0.79929917     0.14700
H928        H  0.67293770  0.08504872  0.74660342     0.14700
C929        C  0.60675615  0.08394101  0.71666514     0.36400
C930        C  0.60146374  0.08070496  0.82925321     0.36300
N931        N  0.61046990  0.08500999  0.69383720    -0.44000
N932        N  0.59811043  0.07988289  0.85209713    -0.44000
C933        C  0.81275989  0.08207324  0.78582002    -0.00400
C934        C  0.83807941  0.12024145  0.78256669    -0.12300
C935        C  0.87925428  0.11966719  0.76972889     0.01900
C936        C  0.89537963  0.08036754  0.75987959    -0.00500
C937        C  0.86969603  0.04233674  0.76266342    -0.12200
C938        C  0.82852626  0.04293438  0.77551072     0.01700
H939        H  0.82529139  0.15059273  0.78963296     0.14700
H940        H  0.88204734  0.01213386  0.75504179     0.14700
C941        C  0.80300637  0.00308727  0.77800382     0.36400
C942        C  0.90396632  0.15984193  0.76625547     0.36300
N943        N  0.78246700  0.97121422  0.78010127    -0.44000
N944        N  0.92375795  0.19201644  0.76332729    -0.44000
C945        C  0.73353072  0.14287756  0.86132432    -0.00400
C946        C  0.69717986  0.13919681  0.87887600    -0.12300
C947        C  0.69958463  0.15316479  0.90515744     0.01900
C948        C  0.73929940  0.17130032  0.91455712    -0.00500
C949        C  0.77572598  0.17447251  0.89694721    -0.12200
C950        C  0.77309396  0.16080570  0.87066625     0.01700
H951        H  0.66694494  0.12428871  0.87225001     0.14700
H952        H  0.80624667  0.18922638  0.90336827     0.14700
C953        C  0.81118599  0.16721088  0.85350650     0.36400
C954        C  0.66075639  0.14801791  0.92186543     0.36300
N955        N  0.84207427  0.17278964  0.84009721    -0.44000
N956        N  0.62946752  0.14390344  0.93511508    -0.44000
C957        C  0.73276504  0.02161938  0.86039829    -0.00400
C958        C  0.69694770  0.02427909  0.87821466    -0.12300
C959        C  0.69980650  0.01051945  0.90454329     0.01900
C960        C  0.73931464  0.32657497  0.91362576    -0.00500
C961        C  0.77512146  0.32386000  0.89564178    -0.12200
C962        C  0.77215645  0.33775889  0.86934426     0.01700
H963        H  0.66696941  0.03873854  0.87183111     0.14700
H964        H  0.80541548  0.30971046  0.90187172     0.14700
C965        C  0.80986013  0.33325680  0.85186569     0.36400
C966        C  0.66184165  0.01554529  0.92172343     0.36300
N967        N  0.84034158  0.32960553  0.83808447    -0.44000
N968        N  0.63125157  0.01967601  0.93535285    -0.44000
C969        C  0.78172122  0.15946332  0.13254170    -0.00400
C970        C  0.74841474  0.15506370  0.15225570    -0.12300
C971        C  0.75534586  0.16858141  0.17829006     0.01900
C972        C  0.79637178  0.18638395  0.18521388    -0.00500
C973        C  0.82969645  0.19049489  0.16570240    -0.12200
C974        C  0.82262576  0.17812424  0.13956026     0.01700
H975        H  0.71712915  0.13994975  0.14757389     0.14700
H976        H  0.86110519  0.20488037  0.17068781     0.14700
C977        C  0.85775387  0.18618585  0.12038422     0.36400
C978        C  0.72028325  0.16292543  0.19778512     0.36300
N979        N  0.88594247  0.19288957  0.10508155    -0.44000
N980        N  0.69234289  0.15857070  0.21352325    -0.44000
C981        C  0.80177288  0.30771919  0.18366486    -0.00400
C982        C  0.76004711  0.98972800  0.17823638    -0.12300
C983        C  0.74980521  0.00512453  0.15306448     0.01900
C984        C  0.78171021  0.00479034  0.13220603    -0.00500
C985        C  0.82355580  0.32277527  0.13768478    -0.12200
C986        C  0.83397182  0.30804469  0.16298225     0.01700
H987        H  0.73509556  0.98971697  0.19385387     0.14700
H988        H  0.84872763  0.32284290  0.12217337     0.14700
C989        C  0.87778492  0.29274506  0.16660067     0.36400
C990        C  0.70677237  0.02263277  0.14986902     0.36300
N991        N  0.91306122  0.28075169  0.16930816    -0.44000
N992        N  0.67231217  0.03682899  0.14750882    -0.44000
O993        O  0.79541492  0.36978721  0.03646107    -0.73200
O994        O  0.80834913  0.46107841  0.09238266    -0.74200
O995        O  0.80845628  0.37202908  0.09219259    -0.62800
O996        O  0.79531904  0.46484954  0.03678307    -0.71200
O997        O  0.72336318  0.46352322  0.04389773    -0.70700
O998        O  0.73656337  0.36991301  0.09922683    -0.62000
O999        O  0.73655158  0.45926026  0.09990112    -0.74500
O1000       O  0.72339444  0.36794209  0.04327045    -0.73300
Cu1001     Cu  0.80416521  0.41699936  0.06374744     1.04600
Cu1002     Cu  0.72734735  0.41509940  0.07135004     1.04300
C1003       C  0.75773074  0.35249298  0.03213722     0.93000
C1004       C  0.77509592  0.47139070  0.10657682     0.92200
C1005       C  0.77498651  0.35983478  0.10624422     0.84300
C1006       C  0.75768739  0.48076669  0.03272537     0.90600
C1007       C  0.68901297  0.41653059  0.80121128     0.86300
C1008       C  0.69352002  0.37664471  0.81953139    -0.54000
C1009       C  0.73052797  0.37747126  0.83442002     0.09200
C1010       C  0.76071084  0.41686677  0.82863210     0.20100
C1011       C  0.69428032  0.45558298  0.81998114    -0.54700
C1012       C  0.73118620  0.45504992  0.83495030     0.09300
C1013       C  0.73175397  0.41735454  0.78426580    -0.54200
C1014       C  0.76879577  0.41745857  0.79860146     0.09900
H1015       H  0.66741788  0.35250527  0.82265780     0.14400
H1016       H  0.79138008  0.41695105  0.83999268     0.00100
H1017       H  0.66852446  0.47868890  0.82339668     0.14700
H1018       H  0.73427883  0.41691697  0.76292961     0.14500
O1019       O  0.78030630  0.53898687  0.94864086    -0.73200
O1020       O  0.78910900  0.63178547  0.00411630    -0.74200
O1021       O  0.78907477  0.53671371  0.00465728    -0.62800
O1022       O  0.78048234  0.62823617  0.94807592    -0.71200
O1023       O  0.70816609  0.62660989  0.95304198    -0.70700
O1024       O  0.71674966  0.53470863  0.00992702    -0.62000
O1025       O  0.71679679  0.63030056  0.00938473    -0.74500
O1026       O  0.70800746  0.53720668  0.95355257    -0.73300
Cu1027     Cu  0.78722147  0.58400596  0.97666905     1.04600
Cu1028     Cu  0.70998406  0.58217281  0.98212624     1.04300
C1029       C  0.74260459  0.52661925  0.94065355     0.93000
C1030       C  0.75428085  0.64753850  0.01440986     0.92200
C1031       C  0.75424210  0.51925689  0.01503696     0.84300
C1032       C  0.74276180  0.63860422  0.93997348     0.90600
C1033       C  0.85102268  0.57978654  0.24189319     0.86300
C1034       C  0.84183261  0.54001465  0.22395722    -0.54000
C1035       C  0.80290169  0.54129612  0.21107029     0.09200
C1036       C  0.77626249  0.58111192  0.21781171     0.20100
C1037       C  0.84635313  0.61848247  0.22274113    -0.54700
C1038       C  0.80775490  0.61847931  0.20948066     0.09300
C1039       C  0.81077827  0.58134138  0.26066362    -0.54200
C1040       C  0.77156724  0.58189265  0.24821426     0.09900
H1041       H  0.86563483  0.51630257  0.21831963     0.14400
H1042       H  0.74441894  0.58151294  0.20764934     0.00100
H1043       H  0.87299991  0.64154087  0.21841981     0.14700
H1044       H  0.81336307  0.58262409  0.28202560     0.14500
O1045       O  0.96011558  0.53935370  0.59271584    -0.73200
O1046       O  0.97062012  0.63276973  0.53630178    -0.74200
O1047       O  0.97285737  0.53735506  0.53650685    -0.62800
O1048       O  0.95707540  0.62821233  0.59265763    -0.71200
O1049       O  0.52928558  0.63298253  0.59685646    -0.70700
O1050       O  0.54471802  0.53979794  0.54205555    -0.62000
O1051       O  0.54269042  0.63459586  0.54105951    -0.74500
O1052       O  0.53212479  0.54426581  0.59805012    -0.73300
Cu1053     Cu  0.96273216  0.58429691  0.56385776     1.04600
Cu1054     Cu  0.53971738  0.58800549  0.56918760     1.04300
C1055       C  0.99410369  0.53116112  0.60602923     0.93000
C1056       C  0.50837145  0.65022659  0.53100277     0.92200
C1057       C  0.51086195  0.52211613  0.53170880     0.84300
C1058       C  0.99060354  0.64161654  0.60517149     0.90600
O1059       O  0.97976038  0.37152502  0.50236789    -0.73200
O1060       O  0.99871584  0.46688379  0.44801861    -0.74200
O1061       O  0.99676930  0.37763709  0.44648090    -0.62800
O1062       O  0.98162281  0.46678830  0.50357786    -0.71200
O1063       O  0.55340199  0.46817540  0.50947837    -0.70700
O1064       O  0.56816244  0.37585252  0.45390915    -0.62000
O1065       O  0.57062457  0.46495526  0.45373315    -0.74500
O1066       O  0.55119554  0.37303138  0.50951793    -0.73300
Cu1067     Cu  0.98660262  0.42064747  0.47533631     1.04600
Cu1068     Cu  0.56314912  0.42050236  0.48239347     1.04300
C1069       C  0.51310896  0.35561822  0.51348715     0.93000
C1070       C  0.53790951  0.47735047  0.44062224     0.92200
C1071       C  0.53533218  0.36609594  0.43969259     0.84300
C1072       C  0.51553308  0.48385268  0.51417699     0.90600
C1073       C  0.01769858  0.58454111  0.30124337     0.86300
C1074       C  0.02013473  0.54395755  0.31880942    -0.54000
C1075       C  0.55656833  0.54222957  0.33392273     0.09200
C1076       C  0.58864158  0.58088944  0.32896101     0.20100
C1077       C  0.02370272  0.62165893  0.32139520    -0.54700
C1078       C  0.56059528  0.61991455  0.33666177     0.09300
C1079       C  0.55997121  0.58543576  0.28450532    -0.54200
C1080       C  0.59733927  0.58407717  0.29872595     0.09900
H1081       H  0.99177732  0.52260070  0.32248892     0.14400
H1082       H  0.61981986  0.57830355  0.33922359     0.00100
H1083       H  0.99705720  0.64232391  0.32670164     0.14700
H1084       H  0.55999626  0.58606840  0.26303781     0.14500
C1085       C  0.51893376  0.41308933  0.74478106     0.86300
C1086       C  0.51431770  0.37207795  0.72775135    -0.54000
C1087       C  0.47781934  0.37041487  0.71251774     0.09200
C1088       C  0.94751002  0.40860174  0.71736580     0.20100
C1089       C  0.51371114  0.45073677  0.72487364    -0.54700
C1090       C  0.47682022  0.44817223  0.70944450     0.09300
C1091       C  0.47641249  0.41388512  0.76166582    -0.54200
C1092       C  0.93952381  0.41150327  0.74733088     0.09900
H1093       H  0.54125783  0.35020437  0.72456949     0.14400
H1094       H  0.91564747  0.40521896  0.70787592     0.00100
H1095       H  0.54003876  0.47444316  0.72179642     0.14700
H1096       H  0.47391869  0.41726343  0.78285722     0.14500
C1097       C  0.54291219  0.34593011  0.41361052    -0.00400
C1098       C  0.57341198  0.64651208  0.41088111    -0.12300
C1099       C  0.58348611  0.62866220  0.38605495     0.01900
C1100       C  0.56225255  0.64370746  0.36288616    -0.00500
C1101       C  0.53603106  0.34708493  0.36579148    -0.12200
C1102       C  0.52491291  0.36363656  0.39060813     0.01700
H1103       H  0.58936887  0.63461272  0.42837265     0.14700
H1104       H  0.02285715  0.36275031  0.34858000     0.14700
C1105       C  0.99538245  0.39949027  0.39157961     0.36400
C1106       C  0.61666010  0.59628096  0.38608586     0.36300
N1107       N  0.97141198  0.42795410  0.39200019    -0.44000
N1108       N  0.64388256  0.57090717  0.38722535    -0.44000
C1109       C  0.54553237  0.49824711  0.41459841    -0.00400
C1110       C  0.57690116  0.48019584  0.39729860    -0.12300
C1111       C  0.58005010  0.49279836  0.37063623     0.01900
C1112       C  0.55155014  0.52389811  0.36099486    -0.00500
C1113       C  0.52031870  0.54202995  0.37832307    -0.12200
C1114       C  0.51748851  0.52987899  0.40497476     0.01700
H1115       H  0.59777050  0.45484375  0.40434602     0.14700
H1116       H  0.49897896  0.56689879  0.37116844     0.14700
C1117       C  0.48682726  0.55148482  0.42225916     0.36400
C1118       C  0.61195787  0.47286454  0.35340915     0.36300
N1119       N  0.96259848  0.56916396  0.43616057    -0.44000
N1120       N  0.63739768  0.45674016  0.33955730    -0.44000
C1121       C  0.48118550  0.35254229  0.68534285    -0.00400
C1122       C  0.51341265  0.37037369  0.66787995    -0.12300
C1123       C  0.51548276  0.35867824  0.64123882     0.01900
C1124       C  0.48470137  0.66183065  0.63143412    -0.00500
C1125       C  0.95163343  0.64474780  0.64874306    -0.12200
C1126       C  0.94969527  0.65658020  0.67550952     0.01700
H1127       H  0.53624769  0.39471867  0.67492802     0.14700
H1128       H  0.92825609  0.62078575  0.64162200     0.14700
C1129       C  0.91539888  0.63823467  0.69256716     0.36400
C1130       C  0.54899707  0.37873234  0.62429762     0.36300
N1131       N  0.88791006  0.62360226  0.70628486    -0.44000
N1132       N  0.57583314  0.39483849  0.61071479    -0.42400
C1133       C  0.48883785  0.51053539  0.63231853    -0.00400
C1134       C  0.95772071  0.47724992  0.63611983    -0.12300
C1135       C  0.94980779  0.45846010  0.66111015     0.01900
C1136       C  0.47436076  0.47271570  0.68340430    -0.00500
C1137       C  0.50213771  0.50949185  0.67956993    -0.12200
C1138       C  0.51022276  0.52770001  0.65451151     0.01700
H1139       H  0.93935025  0.46578232  0.61929882     0.14700
H1140       H  0.51829606  0.52440577  0.69612986     0.14700
C1141       C  0.53974697  0.56494404  0.65248931     0.36400
C1142       C  0.91506796  0.42608493  0.66201350     0.36300
N1143       N  0.56356977  0.59464407  0.65114720    -0.44000
N1144       N  0.88637756  0.40089996  0.66150861    -0.44000
C1145       C  0.72795213  0.58306203  0.26235195    -0.00400
C1146       C  0.69637614  0.61118701  0.25288983    -0.12300
C1147       C  0.65425422  0.61259895  0.26452248     0.01900
C1148       C  0.64242368  0.58492352  0.28612974    -0.00500
C1149       C  0.67430491  0.55722784  0.29589594    -0.12200
C1150       C  0.71658056  0.55598309  0.28427618     0.01700
H1151       H  0.70480652  0.63271057  0.23644089     0.14700
H1152       H  0.66587720  0.53550725  0.31224927     0.14700
C1153       C  0.74678614  0.52510760  0.29450646     0.36400
C1154       C  0.62449665  0.64388112  0.25426705     0.36300
N1155       N  0.77106034  0.50045122  0.30274888    -0.44000
N1156       N  0.60061350  0.66880716  0.24590892    -0.44000
C1157       C  0.89488874  0.58148952  0.25659807    -0.00400
C1158       C  0.92467263  0.54723778  0.25527598    -0.12300
C1159       C  0.96455946  0.54878875  0.26853917     0.01900
C1160       C  0.97583737  0.58460251  0.28459687    -0.00500
C1161       C  0.94692831  0.61961134  0.28505002    -0.12200
C1162       C  0.90692576  0.61800548  0.27191953     0.01700
H1163       H  0.91753494  0.51835986  0.24435362     0.14700
H1164       H  0.95488814  0.64910097  0.29529271     0.14700
C1165       C  0.87864269  0.65463209  0.27491432     0.36400
C1166       C  0.99323842  0.51251879  0.26531592     0.36300
N1167       N  0.85606765  0.35062730  0.27747199    -0.44000
N1168       N  0.01619215  0.48348768  0.26273691    -0.44000
C1169       C  0.56301446  0.41508154  0.75936823    -0.00400
C1170       C  0.56453310  0.41429308  0.78725671    -0.12300
C1171       C  0.60427424  0.41500073  0.80068193     0.01900
C1172       C  0.64501511  0.41626423  0.78656303    -0.00500
C1173       C  0.64349904  0.41713023  0.75868309    -0.12200
C1174       C  0.60378853  0.41643109  0.74524002     0.01700
H1175       H  0.53519091  0.41240984  0.79929856     0.14700
H1176       H  0.67293773  0.41838068  0.74660338     0.14700
C1177       C  0.60675644  0.41727293  0.71666506     0.36400
C1178       C  0.60146389  0.41403817  0.82925310     0.36300
N1179       N  0.61047026  0.41834151  0.69383707    -0.44000
N1180       N  0.59811051  0.41321639  0.85209702    -0.44000
C1181       C  0.81276011  0.41540657  0.78582000    -0.00400
C1182       C  0.83807970  0.45357453  0.78256659    -0.12300
C1183       C  0.87925449  0.45300052  0.76972881     0.01900
C1184       C  0.89537986  0.41370073  0.75987955    -0.00500
C1185       C  0.86969620  0.37567020  0.76266349    -0.12200
C1186       C  0.82852649  0.37626760  0.77551067     0.01700
H1187       H  0.82529126  0.48392686  0.78963308     0.14700
H1188       H  0.88204796  0.34546621  0.75504161     0.14700
C1189       C  0.80300662  0.33642060  0.77800371     0.36400
C1190       C  0.90396638  0.49317516  0.76625515     0.36300
N1191       N  0.78246725  0.30454742  0.78010104    -0.44000
N1192       N  0.92375802  0.52534977  0.76332677    -0.44000
C1193       C  0.73353069  0.47621022  0.86132443    -0.00400
C1194       C  0.69718022  0.47253002  0.87887613    -0.12300
C1195       C  0.69958433  0.48649781  0.90515742     0.01900
C1196       C  0.73929920  0.50463316  0.91455722    -0.00500
C1197       C  0.77572601  0.50780503  0.89694745    -0.12200
C1198       C  0.77309404  0.49413816  0.87066647     0.01700
H1199       H  0.66694272  0.45762087  0.87224949     0.14700
H1200       H  0.80624640  0.52255852  0.90336850     0.14700
C1201       C  0.81118623  0.50054316  0.85350680     0.36400
C1202       C  0.66075595  0.48135135  0.92186532     0.36300
N1203       N  0.84207463  0.50612174  0.84009761    -0.44000
N1204       N  0.62946695  0.47723722  0.93511485    -0.44000
C1205       C  0.73276514  0.35495227  0.86039814    -0.00400
C1206       C  0.69694778  0.35761225  0.87821451    -0.12300
C1207       C  0.69980662  0.34385283  0.90454316     0.01900
C1208       C  0.73931467  0.65990832  0.91362582    -0.00500
C1209       C  0.77512142  0.65719368  0.89564186    -0.12200
C1210       C  0.77215662  0.67109270  0.86934440     0.01700
H1211       H  0.66696964  0.37207174  0.87183091     0.14700
H1212       H  0.80541611  0.64304388  0.90187193     0.14700
C1213       C  0.80986034  0.66659091  0.85186588     0.36400
C1214       C  0.66184176  0.34887905  0.92172339     0.36300
N1215       N  0.84034193  0.66293993  0.83808470    -0.44000
N1216       N  0.63125192  0.35301012  0.93535280    -0.44000
C1217       C  0.78172091  0.49279662  0.13254172    -0.00400
C1218       C  0.74841453  0.48839704  0.15225574    -0.12300
C1219       C  0.75534562  0.50191473  0.17829010     0.01900
C1220       C  0.79637162  0.51971722  0.18521389    -0.00500
C1221       C  0.82969612  0.52382826  0.16570236    -0.12200
C1222       C  0.82262546  0.51145769  0.13956022     0.01700
H1223       H  0.71712875  0.47328300  0.14757392     0.14700
H1224       H  0.86110519  0.53821398  0.17068778     0.14700
C1225       C  0.85775333  0.51951959  0.12038413     0.36400
C1226       C  0.72028305  0.49625882  0.19778512     0.36300
N1227       N  0.88594184  0.52622363  0.10508137    -0.44000
N1228       N  0.69234260  0.49190417  0.21352328    -0.44000
C1229       C  0.80177276  0.64105220  0.18366477    -0.00400
C1230       C  0.76004747  0.32306199  0.17823649    -0.12300
C1231       C  0.74980545  0.33845840  0.15306461     0.01900
C1232       C  0.78171022  0.33812380  0.13220608    -0.00500
C1233       C  0.82355583  0.65610827  0.13768469    -0.12200
C1234       C  0.83397172  0.64137772  0.16298223     0.01700
H1235       H  0.73509589  0.32305126  0.19385418     0.14700
H1236       H  0.84872742  0.65617596  0.12217351     0.14700
C1237       C  0.87778487  0.62607822  0.16660072     0.36400
C1238       C  0.70677268  0.35596680  0.14986920     0.36300
N1239       N  0.91306116  0.61408490  0.16930835    -0.44000
N1240       N  0.67231252  0.37016315  0.14750903    -0.44000
O1241       O  0.79541495  0.70312042  0.03646104    -0.73200
O1242       O  0.80834923  0.79441154  0.09238272    -0.74200
O1243       O  0.80845635  0.70536216  0.09219255    -0.62800
O1244       O  0.79531916  0.79818279  0.03678310    -0.71200
O1245       O  0.72336331  0.79685656  0.04389780    -0.70700
O1246       O  0.73656344  0.70324613  0.09922675    -0.62000
O1247       O  0.73655167  0.79259341  0.09990116    -0.74500
O1248       O  0.72339446  0.70127544  0.04327036    -0.73300
Cu1249     Cu  0.80416530  0.75033253  0.06374744     1.04600
Cu1250     Cu  0.72734744  0.74843263  0.07135002     1.04300
C1251       C  0.75773075  0.68582624  0.03213717     0.93000
C1252       C  0.77509601  0.80472382  0.10657688     0.92200
C1253       C  0.77498656  0.69316781  0.10624413     0.84300
C1254       C  0.75768752  0.81410003  0.03272544     0.90600
C1255       C  0.68901310  0.74986426  0.80121133     0.86300
C1256       C  0.69352010  0.70997847  0.81953151    -0.54000
C1257       C  0.73052802  0.71080503  0.83442014     0.09200
C1258       C  0.76071101  0.75020047  0.82863217     0.20100
C1259       C  0.69428038  0.78891686  0.81998114    -0.54700
C1260       C  0.73118640  0.78838368  0.83495027     0.09300
C1261       C  0.73175407  0.75068798  0.78426585    -0.54200
C1262       C  0.76879587  0.75079206  0.79860151     0.09900
H1263       H  0.66741792  0.68583899  0.82265793     0.14400
H1264       H  0.79138001  0.75028481  0.83999264     0.00100
H1265       H  0.66852516  0.81202224  0.82339657     0.14700
H1266       H  0.73427888  0.75025001  0.76292963     0.14500
O1267       O  0.78030657  0.87232023  0.94864095    -0.73200
O1268       O  0.78910913  0.96511890  0.00411635    -0.74200
O1269       O  0.78907497  0.87004709  0.00465737    -0.62800
O1270       O  0.78048246  0.96156948  0.94807590    -0.71200
O1271       O  0.70816621  0.95994321  0.95304206    -0.70700
O1272       O  0.71674985  0.86804207  0.00992715    -0.62000
O1273       O  0.71679692  0.96363396  0.00938484    -0.74500
O1274       O  0.70800772  0.87053999  0.95355266    -0.73300
Cu1275     Cu  0.78722168  0.91733935  0.97666911     1.04600
Cu1276     Cu  0.70998422  0.91550617  0.98212635     1.04300
C1277       C  0.74260484  0.85995261  0.94065363     0.93000
C1278       C  0.75428095  0.98087192  0.01440993     0.92200
C1279       C  0.75424230  0.85259029  0.01503706     0.84300
C1280       C  0.74276184  0.97193753  0.93997351     0.90600
C1281       C  0.85102264  0.91311985  0.24189324     0.86300
C1282       C  0.84183260  0.87334798  0.22395726    -0.54000
C1283       C  0.80290176  0.87462938  0.21107031     0.09200
C1284       C  0.77626247  0.91444519  0.21781166     0.20100
C1285       C  0.84635323  0.95181592  0.22274115    -0.54700
C1286       C  0.80775489  0.95181256  0.20948066     0.09300
C1287       C  0.81077819  0.91467465  0.26066360    -0.54200
C1288       C  0.77156719  0.91522593  0.24821423     0.09900
H1289       H  0.86563511  0.84963571  0.21831967     0.14400
H1290       H  0.74441907  0.91484616  0.20764933     0.00100
H1291       H  0.87299919  0.97487374  0.21842003     0.14700
H1292       H  0.81336291  0.91595726  0.28202573     0.14500
O1293       O  0.96011535  0.87268667  0.59271578    -0.73200
O1294       O  0.97062020  0.96610304  0.53630185    -0.74200
O1295       O  0.97285738  0.87068828  0.53650676    -0.62800
O1296       O  0.95707525  0.96154533  0.59265773    -0.71200
O1297       O  0.52928544  0.96631558  0.59685662    -0.70700
O1298       O  0.54471796  0.87313107  0.54205559    -0.62000
O1299       O  0.54269049  0.96792909  0.54105965    -0.74500
O1300       O  0.53212447  0.87759878  0.59805018    -0.73300
Cu1301     Cu  0.96273209  0.91763004  0.56385776     1.04600
Cu1302     Cu  0.53971730  0.92133858  0.56918771     1.04300
C1303       C  0.99410340  0.86449407  0.60602922     0.93000
C1304       C  0.50837151  0.98355987  0.53100285     0.92200
C1305       C  0.51086193  0.85544931  0.53170880     0.84300
C1306       C  0.99060337  0.97494945  0.60517167     0.90600
O1307       O  0.97976031  0.70485820  0.50236786    -0.73200
O1308       O  0.99871585  0.80021687  0.44801853    -0.74200
O1309       O  0.99676917  0.71097021  0.44648089    -0.62800
O1310       O  0.98162281  0.80012154  0.50357780    -0.71200
O1311       O  0.55340199  0.80150855  0.50947837    -0.70700
O1312       O  0.56816234  0.70918565  0.45390915    -0.62000
O1313       O  0.57062453  0.79828837  0.45373313    -0.74500
O1314       O  0.55119552  0.70636454  0.50951792    -0.73300
Cu1315     Cu  0.98660256  0.75398063  0.47533627     1.04600
Cu1316     Cu  0.56314907  0.75383549  0.48239346     1.04300
C1317       C  0.51310889  0.68895141  0.51348716     0.93000
C1318       C  0.53790950  0.81068357  0.44062221     0.92200
C1319       C  0.53533208  0.69942908  0.43969259     0.84300
C1320       C  0.51553307  0.81718585  0.51417698     0.90600
C1321       C  0.01769866  0.91787441  0.30124336     0.86300
C1322       C  0.02013472  0.87729064  0.31880937    -0.54000
C1323       C  0.55656845  0.87556276  0.33392270     0.09200
C1324       C  0.58864176  0.91422262  0.32896105     0.20100
C1325       C  0.02370270  0.95499217  0.32139532    -0.54700
C1326       C  0.56059535  0.95324771  0.33666183     0.09300
C1327       C  0.55997125  0.91876917  0.28450532    -0.54200
C1328       C  0.59733930  0.91741046  0.29872596     0.09900
H1329       H  0.99177804  0.85593426  0.32248870     0.14400
H1330       H  0.61981958  0.91163677  0.33922341     0.00100
H1331       H  0.99705736  0.97565693  0.32670169     0.14700
H1332       H  0.55999632  0.91940203  0.26303788     0.14500
C1333       C  0.51893381  0.74642285  0.74478111     0.86300
C1334       C  0.51431822  0.70541154  0.72775133    -0.54000
C1335       C  0.47781977  0.70374825  0.71251774     0.09200
C1336       C  0.94751009  0.74193487  0.71736591     0.20100
C1337       C  0.51371096  0.78407051  0.72487381    -0.54700
C1338       C  0.47681990  0.78150552  0.70944463     0.09300
C1339       C  0.47641255  0.74721817  0.76166609    -0.54200
C1340       C  0.93952384  0.74483615  0.74733096     0.09900
H1341       H  0.54125824  0.68353846  0.72456945     0.14400
H1342       H  0.91564759  0.73855180  0.70787606     0.00100
H1343       H  0.54003764  0.80777653  0.72179676     0.14700
H1344       H  0.47391893  0.75059638  0.78285676     0.14500
C1345       C  0.54291208  0.67926328  0.41361051    -0.00400
C1346       C  0.57341210  0.97984534  0.41088108    -0.12300
C1347       C  0.58348622  0.96199528  0.38605502     0.01900
C1348       C  0.56225271  0.97704063  0.36288621    -0.00500
C1349       C  0.53603086  0.68041802  0.36579152    -0.12200
C1350       C  0.52491266  0.69696967  0.39060814     0.01700
H1351       H  0.58936939  0.96794565  0.42837307     0.14700
H1352       H  0.02285687  0.69608355  0.34857990     0.14700
C1353       C  0.99538224  0.73282327  0.39157962     0.36400
C1354       C  0.61666006  0.92961395  0.38608590     0.36300
N1355       N  0.97141172  0.76128716  0.39200019    -0.44000
N1356       N  0.64388246  0.90424005  0.38722535    -0.44000
C1357       C  0.54553232  0.83158018  0.41459838    -0.00400
C1358       C  0.57690110  0.81352901  0.39729856    -0.12300
C1359       C  0.58005015  0.82613147  0.37063622     0.01900
C1360       C  0.55155021  0.85723124  0.36099483    -0.00500
C1361       C  0.52031866  0.87536308  0.37832301    -0.12200
C1362       C  0.51748847  0.86321200  0.40497470     0.01700
H1363       H  0.59777077  0.78817654  0.40434611     0.14700
H1364       H  0.49897915  0.90023165  0.37116843     0.14700
C1365       C  0.48682704  0.88481786  0.42225909     0.36400
C1366       C  0.61195778  0.80619753  0.35340913     0.36300
N1367       N  0.96259842  0.90249703  0.43616042    -0.44000
N1368       N  0.63739750  0.79007301  0.33955726    -0.44000
C1369       C  0.48118601  0.68587576  0.68534286    -0.00400
C1370       C  0.51341279  0.70370683  0.66787983    -0.12300
C1371       C  0.51548315  0.69201164  0.64123880     0.01900
C1372       C  0.48470119  0.99516365  0.63143427    -0.00500
C1373       C  0.95163306  0.97808055  0.64874320    -0.12200
C1374       C  0.94969509  0.98991335  0.67550969     0.01700
H1375       H  0.53624941  0.72805339  0.67492835     0.14700
H1376       H  0.92825673  0.95411937  0.64162246     0.14700
C1377       C  0.91539863  0.97156779  0.69256737     0.36400
C1378       C  0.54899735  0.71206558  0.62429753     0.36300
N1379       N  0.88790990  0.95693542  0.70628504    -0.44000
N1380       N  0.57583340  0.72817168  0.61071461    -0.42400
C1381       C  0.48883736  0.84386844  0.63231853    -0.00400
C1382       C  0.95772034  0.81058324  0.63612011    -0.12300
C1383       C  0.94980725  0.79179331  0.66111027     0.01900
C1384       C  0.47436042  0.80604897  0.68340443    -0.00500
C1385       C  0.50213719  0.84282493  0.67956979    -0.12200
C1386       C  0.51022241  0.86103307  0.65451155     0.01700
H1387       H  0.93934878  0.79911502  0.61929824     0.14700
H1388       H  0.51829637  0.85773960  0.69613052     0.14700
C1389       C  0.53974682  0.89827704  0.65248922     0.36400
C1390       C  0.91506749  0.75941829  0.66201375     0.36300
N1391       N  0.56356968  0.92797684  0.65114705    -0.44000
N1392       N  0.88637698  0.73423319  0.66150894    -0.44000
C1393       C  0.72795205  0.91639530  0.26235185    -0.00400
C1394       C  0.69637619  0.94452056  0.25289014    -0.12300
C1395       C  0.65425441  0.94593272  0.26452270     0.01900
C1396       C  0.64242369  0.91825683  0.28612971    -0.00500
C1397       C  0.67430463  0.89056046  0.29589575    -0.12200
C1398       C  0.71658033  0.88931586  0.28427582     0.01700
H1399       H  0.70480714  0.96604541  0.23644066     0.14700
H1400       H  0.66587709  0.86884033  0.31224826     0.14700
C1401       C  0.74678564  0.85843991  0.29450576     0.36400
C1402       C  0.62449690  0.97721544  0.25426764     0.36300
N1403       N  0.77105975  0.83378307  0.30274793    -0.44000
N1404       N  0.60061389  0.00214177  0.24590994    -0.44000
C1405       C  0.89488871  0.91482284  0.25659811    -0.00400
C1406       C  0.92467277  0.88057145  0.25527603    -0.12300
C1407       C  0.96455953  0.88212218  0.26853910     0.01900
C1408       C  0.97583741  0.91793594  0.28459692    -0.00500
C1409       C  0.94692817  0.95294434  0.28505002    -0.12200
C1410       C  0.90692570  0.95133884  0.27191967     0.01700
H1411       H  0.91753478  0.85169243  0.24435305     0.14700
H1412       H  0.95488851  0.98243549  0.29529343     0.14700
C1413       C  0.87864262  0.98796537  0.27491446     0.36400
C1414       C  0.99323866  0.84585242  0.26531570     0.36300
N1415       N  0.85606764  0.68396048  0.27747181    -0.44000
N1416       N  0.01619244  0.81682139  0.26273654    -0.44000
C1417       C  0.56301446  0.74841533  0.75936834    -0.00400
C1418       C  0.56453371  0.74762652  0.78725659    -0.12300
C1419       C  0.60427428  0.74833419  0.80068199     0.01900
C1420       C  0.64501523  0.74959801  0.78656307    -0.00500
C1421       C  0.64349909  0.75046463  0.75868316    -0.12200
C1422       C  0.60378862  0.74976546  0.74524008     0.01700
H1423       H  0.53518865  0.74574280  0.79929939     0.14700
H1424       H  0.67293799  0.75171578  0.74660339     0.14700
C1425       C  0.60675648  0.75060800  0.71666511     0.36400
C1426       C  0.60146408  0.74737144  0.82925318     0.36300
N1427       N  0.61047025  0.75167720  0.69383713    -0.44000
N1428       N  0.59811076  0.74654950  0.85209705    -0.44000
C1429       C  0.81276020  0.74873985  0.78582008    -0.00400
C1430       C  0.83807984  0.78690783  0.78256657    -0.12300
C1431       C  0.87925459  0.78633357  0.76972877     0.01900
C1432       C  0.89537995  0.74703377  0.75987967    -0.00500
C1433       C  0.86969632  0.70900302  0.76266365    -0.12200
C1434       C  0.82852650  0.70960084  0.77551089     0.01700
H1435       H  0.82529150  0.81726002  0.78963293     0.14700
H1436       H  0.88204755  0.67880009  0.75504213     0.14700
C1437       C  0.80300654  0.66975388  0.77800401     0.36400
C1438       C  0.90396662  0.82650832  0.76625494     0.36300
N1439       N  0.78246701  0.63788080  0.78010147    -0.44000
N1440       N  0.92375818  0.85868268  0.76332641    -0.44000
C1441       C  0.73353081  0.80954397  0.86132442    -0.00400
C1442       C  0.69718051  0.80586354  0.87887618    -0.12300
C1443       C  0.69958459  0.81983121  0.90515747     0.01900
C1444       C  0.73929953  0.83796669  0.91455727    -0.00500
C1445       C  0.77572582  0.84113862  0.89694735    -0.12200
C1446       C  0.77309422  0.82747211  0.87066643     0.01700
H1447       H  0.66694284  0.79095420  0.87224951     0.14700
H1448       H  0.80624806  0.85589310  0.90336880     0.14700
C1449       C  0.81118614  0.83387737  0.85350669     0.36400
C1450       C  0.66075627  0.81468461  0.92186539     0.36300
N1451       N  0.84207445  0.83945627  0.84009736    -0.44000
N1452       N  0.62946728  0.81057031  0.93511493    -0.44000
C1453       C  0.73276528  0.68828601  0.86039827    -0.00400
C1454       C  0.69694770  0.69094582  0.87821456    -0.12300
C1455       C  0.69980659  0.67718612  0.90454324     0.01900
C1456       C  0.73931464  0.99324164  0.91362583    -0.00500
C1457       C  0.77512141  0.99052699  0.89564185    -0.12200
C1458       C  0.77215643  0.00442611  0.86934437     0.01700
H1459       H  0.66697026  0.70540485  0.87183113     0.14700
H1460       H  0.80541568  0.97637743  0.90187179     0.14700
C1461       C  0.80986025  0.99992450  0.85186583     0.36400
C1462       C  0.66184160  0.68221194  0.92172334     0.36300
N1463       N  0.84034183  0.99627366  0.83808469    -0.44000
N1464       N  0.63125147  0.68634261  0.93535268    -0.44000
C1465       C  0.78172096  0.82612969  0.13254180    -0.00400
C1466       C  0.74841481  0.82172989  0.15225588    -0.12300
C1467       C  0.75534581  0.83524759  0.17829021     0.01900
C1468       C  0.79637169  0.85305045  0.18521391    -0.00500
C1469       C  0.82969628  0.85716184  0.16570236    -0.12200
C1470       C  0.82262541  0.84479105  0.13956021     0.01700
H1471       H  0.71712857  0.80661536  0.14757403     0.14700
H1472       H  0.86110430  0.87154745  0.17068757     0.14700
C1473       C  0.85775311  0.85285325  0.12038404     0.36400
C1474       C  0.72028348  0.82959135  0.19778534     0.36300
N1475       N  0.88594141  0.85955742  0.10508115    -0.44000
N1476       N  0.69234322  0.82523636  0.21352362    -0.44000
C1477       C  0.80177267  0.97438561  0.18366483    -0.00400
C1478       C  0.76004700  0.65639476  0.17823649    -0.12300
C1479       C  0.74980531  0.67179111  0.15306441     0.01900
C1480       C  0.78171016  0.67145670  0.13220598    -0.00500
C1481       C  0.82355562  0.98944208  0.13768494    -0.12200
C1482       C  0.83397183  0.97471147  0.16298229     0.01700
H1483       H  0.73509665  0.65638397  0.19385330     0.14700
H1484       H  0.84872856  0.98950996  0.12217301     0.14700
C1485       C  0.87778493  0.95941231  0.16660085     0.36400
C1486       C  0.70677241  0.68929923  0.14986893     0.36300
N1487       N  0.91306144  0.94741923  0.16930851    -0.44000
N1488       N  0.67231217  0.70349535  0.14750862    -0.44000
loop_ 
_geom_bond_atom_site_label_1 
_geom_bond_atom_site_label_2 
_geom_bond_distance 
_geom_bond_site_symmetry_2 
_ccdc_geom_bond_type 
O1           Cu9   2.031       .  S
O1           C11   1.280       .  A
O2           Cu9   1.998       .  S
O2           C12   1.277       .  A
O3           Cu9   2.001       .  S
O3           C13   1.278       .  A
O4           Cu9   2.031       .  S
O4           C14   1.280       .  A
O5          Cu10   2.041       .  S
O5           C14   1.281       .  A
O6          Cu10   2.006       .  S
O6           C13   1.278       .  A
O7          Cu10   2.012       .  S
O7           C12   1.279       .  A
O8          Cu10   2.044       .  S
O8           C11   1.282       .  A
Cu9         Cu10   2.366       .  S
C11         C534   1.492   1_545  S
C12         C225   1.489       .  S
C13         C240   1.490       .  S
C14          C39   1.490       .  S
C15          C16   1.547       .  S
C15          C21   1.543       .  S
C15          C19   1.547       .  S
C15         C180   1.548       .  S
C16          H23   1.086       .  S
C16          C17   1.371       .  D
C17          C18   1.531       .  S
C17         C213   1.486       .  S
C18          C22   1.532       .  S
C18          C20   1.532       .  S
C18          H24   1.109       .  S
C19          H25   1.086       .  S
C19          C20   1.372       .  D
C20         C201   1.491       .  S
C21          H26   1.080       .  S
C21          C22   1.357       .  D
C22         C189   1.478       .  S
O27         Cu35   2.003       .  S
O27          C37   1.279       .  A
O28         Cu35   2.033   1_554  S
O28          C38   1.280       .  A
O29         Cu35   2.030   1_554  S
O29          C39   1.280       .  A
O30         Cu35   2.000       .  S
O30          C40   1.278       .  A
O31         Cu36   2.007       .  S
O31          C40   1.278       .  A
O32         Cu36   2.041   1_554  S
O32          C39   1.281       .  A
O33         Cu36   2.044   1_554  S
O33          C38   1.281       .  A
O34         Cu36   2.012       .  S
O34          C37   1.278       .  A
Cu35        Cu36   2.366       .  S
C37         C204   1.492       .  S
C38         C259   1.492       .  S
C40         C216   1.489       .  S
C41          C42   1.556       .  S
C41          C47   1.536       .  S
C41          C45   1.545       .  S
C41         C165   1.546       .  S
C42          H49   1.079       .  S
C42          C43   1.369       .  D
C43          C44   1.527       .  S
C43         C228   1.486       .  S
C44          C48   1.541       .  S
C44          C46   1.534       .  S
C44          H50   1.110       .  S
C45          H51   1.085       .  S
C45          C46   1.369       .  D
C46         C237   1.492       .  S
C47          H52   1.085       .  S
C47          C48   1.365       .  D
C48         C153   1.497       .  S
O53         Cu61   2.006       .  S
O53          C63   1.279       .  A
O54         Cu61   2.044       .  S
O54         C808   1.282       .  A
O55         Cu61   2.034       .  S
O55         C809   1.281       .  A
O56         Cu61   2.004       .  S
O56          C66   1.277       .  A
O57         Cu62   2.004       .  S
O57         C810   1.279   1_455  A
O58         Cu62   2.037       .  S
O58          C65   1.281       .  A
O59         Cu62   2.015       .  S
O59          C64   1.278       .  A
O60         Cu62   1.988       .  S
O60         C807   1.275   1_455  A
Cu61       Cu806   2.371       .  S
Cu62       Cu805   2.371   1_455  S
C63         O804   1.275       .  A
C63         C885   1.474       .  S
C64         O798   1.282   1_455  A
C64         C325   1.486       .  S
C65         O799   1.281   1_455  A
C65          C80   1.490       .  S
C66         O801   1.279       .  A
C66         C876   1.480       .  S
O67         Cu75   2.039       .  S
O67         C821   1.280       .  A
O68         Cu75   2.002       .  S
O68         C822   1.278       .  A
O69         Cu75   2.003       .  S
O69         C823   1.278       .  A
O70         Cu75   2.030       .  S
O70         C824   1.280       .  A
O71         Cu76   2.040       .  S
O71          C80   1.281       .  A
O72         Cu76   2.006       .  S
O72          C79   1.278       .  A
O73         Cu76   1.995       .  S
O73          C78   1.276       .  A
O74         Cu76   2.022       .  S
O74          C77   1.280       .  A
Cu75       Cu820   2.371       .  S
Cu76       Cu819   2.371   1_455  S
C77         O811   1.280   1_455  A
C77         C560   1.486   1_545  S
C78         O812   1.278   1_455  A
C78         C117   1.473       .  S
C79         O813   1.278   1_455  A
C79         C105   1.478       .  S
C80         O814   1.280   1_455  A
C81          C82   1.536       .  S
C81          C85   1.549       .  S
C81         C831   1.526       .  S
C81         C168   1.546       .  S
C82          H89   1.087       .  S
C82         C827   1.365       .  D
C83          C84   1.541       .  S
C83         C826   1.365       .  D
C83         C120   1.481       .  S
C84          C88   1.547       .  S
C84          C86   1.542       .  S
C84          H90   1.098       .  S
C85          H91   1.076       .  S
C85         C830   1.381       .  D
C86         C829   1.381       .  D
C86         C108   1.521       .  S
C87         C825   1.526       .  S
C87          H92   1.085       .  S
C87          C88   1.363       .  D
C88         C156   1.502       .  S
C93          C94   1.542       .  S
C93          C99   1.537   1_455  S
C93          C97   1.546       .  S
C93         C177   1.549       .  S
C94         H101   1.086       .  S
C94          C95   1.369   1_455  D
C95         C840   1.534       .  S
C95         C129   1.486       .  S
C96         C100   1.532       .  S
C96         C839   1.534       .  S
C96         C842   1.542       .  S
C96         H102   1.097       .  S
C97         H103   1.082       .  S
C97          C98   1.385   1_455  D
C98         C840   1.542       .  S
C98         C144   1.519       .  S
C99         H104   1.078       .  S
C99         C844   1.353       .  D
C100        C843   1.353       .  D
C100        C192   1.479       .  S
C105        C110   1.410       .  A
C105        C602   1.396   1_545  A
C106        C107   1.405       .  A
C106        C353   1.396       .  A
C106        H111   1.085       .  S
C107        C108   1.432       .  A
C107        C114   1.440       .  S
C108        C357   1.410       .  A
C109        C110   1.395       .  A
C109        C604   1.410   1_545  A
C109        H856   1.083       .  S
C110        C857   1.445   1_455  S
H112        C853   1.083       .  S
C113        C854   1.445       .  S
C113        N115   1.157       .  T
C114        N116   1.158       .  T
C117        C118   1.409       .  A
C117        C122   1.406       .  A
C118        C119   1.401       .  A
C118        H123   1.085       .  S
C119        C120   1.404       .  A
C119        C126   1.443       .  S
C120        C121   1.408       .  A
C121        C122   1.396       .  A
C121        H124   1.085   1_455  S
C122        C125   1.444   1_455  S
C125        N871   1.157       .  T
C126        N128   1.157       .  T
N127        C869   1.157       .  T
C129        C130   1.406   1_655  A
C129       C1374   1.405   1_545  A
C130        C131   1.397       .  A
C130        H135   1.081       .  S
C131        C628   1.408   1_445  A
C131        C138   1.444       .  S
C132        C810   1.480       .  S
C132        C379   1.408   1_655  A
C132        C877   1.410       .  A
C133        C134   1.404       .  A
C133        C876   1.410       .  A
C133        H136   1.085       .  S
C134       C1121   1.405       .  A
C134        C137   1.443       .  S
C137        N139   1.157       .  T
C138        N140   1.157       .  T
C141        C807   1.474       .  S
C141        C146   1.411   1_655  A
C141        C886   1.392       .  A
C142        C143   1.400       .  A
C142        C885   1.392       .  A
C142        H147   1.086       .  S
C143        C888   1.433       .  A
C143        C150   1.439       .  S
C144        C145   1.410   1_655  A
C144        C887   1.433       .  A
C145        C146   1.397       .  A
C145        H148   1.081       .  S
C146        C149   1.446       .  S
C149        N151   1.157       .  T
C150        N152   1.158       .  T
C153        C154   1.403       .  A
C153        C158   1.416       .  A
C154        C155   1.403       .  A
C154        H159   1.084       .  S
C155        C156   1.417       .  A
C155        C162   1.444       .  S
C156        C157   1.407       .  A
C157        C158   1.406       .  A
C157        H160   1.084       .  S
C158        C161   1.444       .  S
C161        N163   1.157       .  T
C162        N164   1.157       .  T
C165        C166   1.412       .  A
C165        C170   1.418       .  A
C166        C167   1.403       .  A
C166        H171   1.073       .  S
C167        C168   1.417       .  A
C167        C174   1.446       .  S
C168        C169   1.412       .  A
C169        C170   1.403       .  A
C169        H172   1.076       .  S
C170        C173   1.446       .  S
C173        N423   1.157       .  T
C174        N176   1.157       .  T
N175        C669   1.157   1_545  T
C177        C178   1.412       .  A
C177        C182   1.420       .  A
C178        C179   1.403       .  A
C178        H183   1.071       .  S
C179        C180   1.419       .  A
C179        C186   1.445       .  S
C180        C181   1.411       .  A
C181        C182   1.403       .  A
C181        H184   1.074       .  S
C182        C185   1.445       .  S
C185        N187   1.157       .  T
C186        N188   1.157       .  T
C189        C190   1.401       .  A
C189        C194   1.411       .  A
C190        C191   1.401       .  A
C190        H195   1.084       .  S
C191        C192   1.410       .  A
C191        C198   1.444       .  S
C192        C193   1.401       .  A
C193        C194   1.401       .  A
C193        H196   1.084       .  S
C194        C197   1.444       .  S
C197        N199   1.157   1_545  T
C198        N200   1.157       .  T
C201        C202   1.406       .  A
C201        C206   1.409       .  A
C202        C203   1.403       .  A
C202        H207   1.082       .  S
C203        C204   1.416       .  A
C203        C210   1.444       .  S
C204        C205   1.409       .  A
C205        C206   1.400       .  A
C205        H208   1.084       .  S
C206        C209   1.443       .  S
C209        N211   1.157       .  T
C210        N212   1.157       .  T
C213        C214   1.404       .  A
C213        C714   1.409       .  A
C214        C215   1.400       .  A
C214        H219   1.082       .  S
C215        C712   1.415   1_545  A
C215        C222   1.444       .  S
C216        C217   1.409       .  A
C216        C463   1.415       .  A
C217        C218   1.400       .  A
C217        H220   1.084       .  S
C218        C461   1.409       .  A
C218        C221   1.444       .  S
C221        N223   1.157       .  T
C222        N224   1.157       .  T
C225        C226   1.410       .  A
C225        C230   1.416       .  A
C226        C227   1.402       .  A
C226        H231   1.084       .  S
C227        C228   1.408       .  A
C227        C234   1.444       .  S
C228        C229   1.403       .  A
C229        C230   1.398       .  A
C229        H232   1.082       .  S
C230        C233   1.444       .  S
C233        N235   1.157       .  T
C234        N236   1.157       .  T
C237        C242   1.418       .  A
C237        C486   1.402       .  A
C238        C239   1.400   1_565  A
C238        C733   1.402       .  A
C238        H243   1.084       .  S
C239        C240   1.419       .  A
C239        C246   1.444       .  S
C240        C737   1.406   1_545  A
C241        C242   1.400       .  A
C241        C488   1.406       .  A
C241        H244   1.085       .  S
C242        C245   1.444       .  S
C245        N247   1.158       .  T
C246        N248   1.157       .  T
O249       Cu257   2.031       .  S
O249        C259   1.280       .  A
O250       Cu257   1.998       .  S
O250        C260   1.277       .  A
O251       Cu257   2.001       .  S
O251        C261   1.278       .  A
O252       Cu257   2.031       .  S
O252        C262   1.280       .  A
O253       Cu258   2.041       .  S
O253        C262   1.281       .  A
O254       Cu258   2.006       .  S
O254        C261   1.278       .  A
O255       Cu258   2.012       .  S
O255        C260   1.279       .  A
O256       Cu258   2.044       .  S
O256        C259   1.282       .  A
Cu257      Cu258   2.366       .  S
C260        C473   1.489       .  S
C261        C488   1.490       .  S
C262        C287   1.490       .  S
C263        C264   1.547       .  S
C263        C269   1.543       .  S
C263        C267   1.547       .  S
C263        C428   1.548       .  S
C264        H271   1.086       .  S
C264        C265   1.371       .  D
C265        C266   1.531       .  S
C265        C461   1.486       .  S
C266        C270   1.532       .  S
C266        C268   1.532       .  S
C266        H272   1.109       .  S
C267        H273   1.086       .  S
C267        C268   1.372       .  D
C268        C449   1.491       .  S
C269        H274   1.080       .  S
C269        C270   1.357       .  D
C270        C437   1.478       .  S
O275       Cu283   2.003       .  S
O275        C285   1.279       .  A
O276       Cu283   2.033   1_554  S
O276        C286   1.280       .  A
O277       Cu283   2.030   1_554  S
O277        C287   1.280       .  A
O278       Cu283   2.000       .  S
O278        C288   1.278       .  A
O279       Cu284   2.007       .  S
O279        C288   1.278       .  A
O280       Cu284   2.041   1_554  S
O280        C287   1.281       .  A
O281       Cu284   2.044   1_554  S
O281        C286   1.281       .  A
O282       Cu284   2.012       .  S
O282        C285   1.278       .  A
Cu283      Cu284   2.366       .  S
C285        C452   1.492       .  S
C286        C507   1.492       .  S
C288        C464   1.489       .  S
C289        C290   1.556       .  S
C289        C295   1.536       .  S
C289        C293   1.545       .  S
C289        C413   1.546       .  S
C290        H297   1.079       .  S
C290        C291   1.369       .  D
C291        C292   1.527       .  S
C291        C476   1.486       .  S
C292        C296   1.541       .  S
C292        C294   1.534       .  S
C292        H298   1.110       .  S
C293        H299   1.085       .  S
C293        C294   1.369       .  D
C294        C485   1.492       .  S
C295        H300   1.085       .  S
C295        C296   1.365       .  D
C296        C401   1.497       .  S
O301       Cu309   2.006       .  S
O301        C311   1.279       .  A
O302       Cu309   2.044       .  S
O302       C1056   1.282       .  A
O303       Cu309   2.034       .  S
O303       C1057   1.281       .  A
O304       Cu309   2.004       .  S
O304        C314   1.277       .  A
O305       Cu310   2.004       .  S
O305       C1058   1.279   1_455  A
O306       Cu310   2.037       .  S
O306        C313   1.281       .  A
O307       Cu310   2.015       .  S
O307        C312   1.278       .  A
O308       Cu310   1.988       .  S
O308       C1055   1.275   1_455  A
Cu309     Cu1054   2.371       .  S
Cu310     Cu1053   2.371   1_455  S
C311       O1052   1.275       .  A
C311       C1133   1.474       .  S
C312       O1046   1.282   1_455  A
C312        C573   1.486       .  S
C313       O1047   1.281   1_455  A
C313        C328   1.490       .  S
C314       O1049   1.279       .  A
C314       C1124   1.480       .  S
O315       Cu323   2.039       .  S
O315       C1069   1.280       .  A
O316       Cu323   2.002       .  S
O316       C1070   1.278       .  A
O317       Cu323   2.003       .  S
O317       C1071   1.278       .  A
O318       Cu323   2.030       .  S
O318       C1072   1.280       .  A
O319       Cu324   2.040       .  S
O319        C328   1.281       .  A
O320       Cu324   2.006       .  S
O320        C327   1.278       .  A
O321       Cu324   1.995       .  S
O321        C326   1.276       .  A
O322       Cu324   2.022       .  S
O322        C325   1.280       .  A
Cu323     Cu1068   2.371       .  S
Cu324     Cu1067   2.371   1_455  S
C325       O1059   1.280   1_455  A
C326       O1060   1.278   1_455  A
C326        C365   1.473       .  S
C327       O1061   1.278   1_455  A
C327        C353   1.478       .  S
C328       O1062   1.280   1_455  A
C329        C330   1.536       .  S
C329       C1079   1.526       .  S
C329        C333   1.549       .  S
C329        C416   1.546       .  S
C330        H337   1.087       .  S
C330       C1075   1.365       .  D
C331        C332   1.541       .  S
C331       C1074   1.365       .  D
C331        C368   1.481       .  S
C332        C336   1.547       .  S
C332        C334   1.542       .  S
C332        H338   1.098       .  S
C333        H339   1.076       .  S
C333       C1078   1.381       .  D
C334       C1077   1.381       .  D
C334        C356   1.521       .  S
C335       C1073   1.526       .  S
C335        H340   1.085       .  S
C335        C336   1.363       .  D
C336        C404   1.502       .  S
C341        C342   1.542       .  S
C341        C347   1.537   1_455  S
C341        C345   1.546       .  S
C341        C425   1.549       .  S
C342        H349   1.086       .  S
C342        C343   1.369   1_455  D
C343       C1088   1.534       .  S
C343        C377   1.486       .  S
C344       C1087   1.534       .  S
C344        C348   1.532       .  S
C344       C1090   1.542       .  S
C344        H350   1.097       .  S
C345        H351   1.082       .  S
C345        C346   1.385   1_455  D
C346       C1088   1.542       .  S
C346        C392   1.519       .  S
C347        H352   1.078       .  S
C347       C1092   1.353       .  D
C348       C1091   1.353       .  D
C348        C440   1.479       .  S
C353        C358   1.410       .  A
C354        C601   1.396       .  A
C354        C355   1.405       .  A
C354        H359   1.085       .  S
C355        C356   1.432       .  A
C355        C362   1.440       .  S
C356        C605   1.410       .  A
C357        C358   1.395       .  A
C357       H1104   1.083       .  S
C358       C1105   1.445   1_455  S
H360       C1101   1.083       .  S
C361       C1102   1.445       .  S
C361        N363   1.157       .  T
C362        N364   1.158       .  T
C365        C366   1.409       .  A
C365        C370   1.406       .  A
C366        C367   1.401       .  A
C366        H371   1.085       .  S
C367        C368   1.404       .  A
C367        C374   1.443       .  S
C368        C369   1.408       .  A
C369        C370   1.396       .  A
C369        H372   1.085   1_455  S
C370        C373   1.444   1_455  S
C373       N1119   1.157       .  T
C374        N376   1.157       .  T
N375       C1117   1.157       .  T
C377        C378   1.406   1_655  A
C377        C878   1.405       .  A
C378        C379   1.397       .  A
C378        H383   1.081       .  S
C379        C386   1.444       .  S
C380       C1058   1.480       .  S
C380        C627   1.408   1_655  A
C380       C1125   1.410       .  A
C381       C1124   1.410       .  A
C381        C382   1.404       .  A
C381        H384   1.085       .  S
C382       C1369   1.405       .  A
C382        C385   1.443       .  S
C385        N387   1.157       .  T
C386        N388   1.157       .  T
C389       C1055   1.474       .  S
C389       C1134   1.392       .  A
C389        C394   1.411   1_655  A
C390       C1133   1.392       .  A
C390        C391   1.400       .  A
C390        H395   1.086       .  S
C391       C1136   1.433       .  A
C391        C398   1.439       .  S
C392       C1135   1.433       .  A
C392        C393   1.410   1_655  A
C393        C394   1.397       .  A
C393        H396   1.081       .  S
C394        C397   1.446       .  S
C397        N399   1.157       .  T
C398        N400   1.158       .  T
C401        C402   1.403       .  A
C401        C406   1.416       .  A
C402        C403   1.403       .  A
C402        H407   1.083       .  S
C403        C404   1.417       .  A
C403        C410   1.444       .  S
C404        C405   1.407       .  A
C405        C406   1.406       .  A
C405        H408   1.083       .  S
C406        C409   1.444       .  S
C409        N411   1.157       .  T
C410        N412   1.157       .  T
C413        C414   1.412       .  A
C413        C418   1.418       .  A
C414        C415   1.403       .  A
C414        H419   1.073       .  S
C415        C416   1.417       .  A
C415        C422   1.446       .  S
C416        C417   1.412       .  A
C417        C418   1.403       .  A
C417        H420   1.076       .  S
C418        C421   1.446       .  S
C421        N671   1.157       .  T
C422        N424   1.157       .  T
C425        C426   1.412       .  A
C425        C430   1.420       .  A
C426        C427   1.403       .  A
C426        H431   1.071       .  S
C427        C428   1.419       .  A
C427        C434   1.445       .  S
C428        C429   1.411       .  A
C429        C430   1.403       .  A
C429        H432   1.074       .  S
C430        C433   1.445       .  S
C433        N435   1.157       .  T
C434        N436   1.157       .  T
C437        C438   1.401       .  A
C437        C442   1.411       .  A
C438        C439   1.401       .  A
C438        H443   1.084       .  S
C439        C440   1.410       .  A
C439        C446   1.444       .  S
C440        C441   1.401       .  A
C441        C442   1.401       .  A
C441        H444   1.084       .  S
C442        C445   1.444       .  S
C445        N447   1.157       .  T
C446        N448   1.157       .  T
C449        C450   1.406       .  A
C449        C454   1.409       .  A
C450        C451   1.403       .  A
C450        H455   1.082       .  S
C451        C452   1.416       .  A
C451        C458   1.444       .  S
C452        C453   1.409       .  A
C453        C454   1.400       .  A
C453        H456   1.084       .  S
C454        C457   1.443       .  S
C457        N459   1.157       .  T
C458        N460   1.157       .  T
C461        C462   1.404       .  A
C462        C463   1.400       .  A
C462        H467   1.082       .  S
C463        C470   1.444       .  S
C464        C711   1.415       .  A
C464        C465   1.409       .  A
C465        C466   1.400       .  A
C465        H468   1.084       .  S
C466        C709   1.409       .  A
C466        C469   1.444       .  S
C469        N471   1.157       .  T
C470        N472   1.157       .  T
C473        C474   1.410       .  A
C473        C478   1.416       .  A
C474        C475   1.402       .  A
C474        H479   1.084       .  S
C475        C476   1.408       .  A
C475        C482   1.444       .  S
C476        C477   1.403       .  A
C477        C478   1.398       .  A
C477        H480   1.082       .  S
C478        C481   1.444       .  S
C481        N483   1.157       .  T
C482        N484   1.157       .  T
C485        C734   1.402       .  A
C485        C490   1.418       .  A
C486        C487   1.400       .  A
C486        H491   1.084       .  S
C487        C488   1.419       .  A
C487        C494   1.444       .  S
C489        C736   1.406       .  A
C489        C490   1.400       .  A
C489        H492   1.085       .  S
C490        C493   1.444       .  S
C493        N495   1.158       .  T
C494        N496   1.157       .  T
O497       Cu505   2.031       .  S
O497        C507   1.280       .  A
O498       Cu505   1.998       .  S
O498        C508   1.277       .  A
O499       Cu505   2.001       .  S
O499        C509   1.278       .  A
O500       Cu505   2.031       .  S
O500        C510   1.280       .  A
O501       Cu506   2.041       .  S
O501        C510   1.281       .  A
O502       Cu506   2.006       .  S
O502        C509   1.278       .  A
O503       Cu506   2.012       .  S
O503        C508   1.279       .  A
O504       Cu506   2.044       .  S
O504        C507   1.282       .  A
Cu505      Cu506   2.366       .  S
C508        C721   1.489       .  S
C509        C736   1.490       .  S
C510        C535   1.490       .  S
C511        C512   1.547       .  S
C511        C517   1.543       .  S
C511        C515   1.547       .  S
C511        C676   1.548       .  S
C512        H519   1.086       .  S
C512        C513   1.371       .  D
C513        C514   1.531       .  S
C513        C709   1.486       .  S
C514        C518   1.532       .  S
C514        C516   1.532       .  S
C514        H520   1.109       .  S
C515        H521   1.086       .  S
C515        C516   1.372       .  D
C516        C697   1.491       .  S
C517        H522   1.080       .  S
C517        C518   1.357       .  D
C518        C685   1.478       .  S
O523       Cu531   2.003       .  S
O523        C533   1.279       .  A
O524       Cu531   2.033   1_554  S
O524        C534   1.280       .  A
O525       Cu531   2.030   1_554  S
O525        C535   1.280       .  A
O526       Cu531   2.000       .  S
O526        C536   1.278       .  A
O527       Cu532   2.007       .  S
O527        C536   1.278       .  A
O528       Cu532   2.041   1_554  S
O528        C535   1.281       .  A
O529       Cu532   2.044   1_554  S
O529        C534   1.281       .  A
O530       Cu532   2.012       .  S
O530        C533   1.278       .  A
Cu531      Cu532   2.366       .  S
C533        C700   1.492       .  S
C536        C712   1.489       .  S
C537        C538   1.556       .  S
C537        C543   1.536       .  S
C537        C541   1.545       .  S
C537        C661   1.546       .  S
C538        H545   1.079       .  S
C538        C539   1.369       .  D
C539        C540   1.527       .  S
C539        C724   1.486       .  S
C540        C544   1.541       .  S
C540        C542   1.534       .  S
C540        H546   1.110       .  S
C541        H547   1.085       .  S
C541        C542   1.369       .  D
C542        C733   1.492       .  S
C543        H548   1.085       .  S
C543        C544   1.365       .  D
C544        C649   1.497       .  S
O549       Cu557   2.006       .  S
O549        C559   1.279       .  A
O550       Cu557   2.044       .  S
O550       C1304   1.282       .  A
O551       Cu557   2.034       .  S
O551       C1305   1.281       .  A
O552       Cu557   2.004       .  S
O552        C562   1.277       .  A
O553       Cu558   2.004       .  S
O553       C1306   1.279   1_455  A
O554       Cu558   2.037       .  S
O554        C561   1.281       .  A
O555       Cu558   2.015       .  S
O555        C560   1.278       .  A
O556       Cu558   1.988       .  S
O556       C1303   1.275   1_455  A
Cu557     Cu1302   2.371       .  S
Cu558     Cu1301   2.371   1_455  S
C559       O1300   1.275       .  A
C559       C1381   1.474       .  S
C560       O1294   1.282   1_455  A
C561       O1295   1.281   1_455  A
C561        C576   1.490       .  S
C562       O1297   1.279       .  A
C562       C1372   1.480       .  S
O563       Cu571   2.039       .  S
O563       C1317   1.280       .  A
O564       Cu571   2.002       .  S
O564       C1318   1.278       .  A
O565       Cu571   2.003       .  S
O565       C1319   1.278       .  A
O566       Cu571   2.030       .  S
O566       C1320   1.280       .  A
O567       Cu572   2.040       .  S
O567        C576   1.281       .  A
O568       Cu572   2.006       .  S
O568        C575   1.278       .  A
O569       Cu572   1.995       .  S
O569        C574   1.276       .  A
O570       Cu572   2.022       .  S
O570        C573   1.280       .  A
Cu571     Cu1316   2.371       .  S
Cu572     Cu1315   2.371   1_455  S
C573       O1307   1.280   1_455  A
C574       O1308   1.278   1_455  A
C574        C613   1.473       .  S
C575       O1309   1.278   1_455  A
C575        C601   1.478       .  S
C576       O1310   1.280   1_455  A
C577        C578   1.536       .  S
C577       C1327   1.526       .  S
C577        C581   1.549       .  S
C577        C664   1.546       .  S
C578        H585   1.087       .  S
C578       C1323   1.365       .  D
C579        C580   1.541       .  S
C579       C1322   1.365       .  D
C579        C616   1.481       .  S
C580        C584   1.547       .  S
C580        C582   1.542       .  S
C580        H586   1.098       .  S
C581        H587   1.076       .  S
C581       C1326   1.381       .  D
C582       C1325   1.381       .  D
C582        C604   1.521       .  S
C583       C1321   1.526       .  S
C583        H588   1.085       .  S
C583        C584   1.363       .  D
C584        C652   1.502       .  S
C589        C590   1.542       .  S
C589        C595   1.537   1_455  S
C589        C593   1.546       .  S
C589        C673   1.549       .  S
C590        H597   1.086       .  S
C590        C591   1.369   1_455  D
C591       C1336   1.534       .  S
C591        C625   1.486       .  S
C592       C1335   1.534       .  S
C592        C596   1.532       .  S
C592       C1338   1.542       .  S
C592        H598   1.097       .  S
C593        H599   1.082       .  S
C593        C594   1.385   1_455  D
C594       C1336   1.542       .  S
C594        C640   1.519       .  S
C595        H600   1.078       .  S
C595       C1340   1.353       .  D
C596       C1339   1.353       .  D
C596        C688   1.479       .  S
C601        C606   1.410       .  A
C602        C603   1.405       .  A
C602        H607   1.085       .  S
C603        C604   1.432       .  A
C603        C610   1.440       .  S
C605        C606   1.395       .  A
C605       H1352   1.083       .  S
C606       C1353   1.445   1_455  S
H608       C1349   1.083       .  S
C609       C1350   1.445       .  S
C609        N611   1.157       .  T
C610        N612   1.158       .  T
C613        C614   1.409       .  A
C613        C618   1.406       .  A
C614        C615   1.401       .  A
C614        H619   1.085       .  S
C615        C616   1.404       .  A
C615        C622   1.443       .  S
C616        C617   1.408       .  A
C617        C618   1.396       .  A
C617        H620   1.085   1_455  S
C618        C621   1.444   1_455  S
C621       N1367   1.157       .  T
C622        N624   1.157       .  T
N623       C1365   1.157       .  T
C625        C626   1.406   1_655  A
C625       C1126   1.405       .  A
C626        C627   1.397       .  A
C626        H631   1.081       .  S
C627        C634   1.444       .  S
C628       C1306   1.480       .  S
C628       C1373   1.410       .  A
C629       C1372   1.410       .  A
C629        C630   1.404       .  A
C629        H632   1.085       .  S
C630        C873   1.405   1_565  A
C630        C633   1.443       .  S
C633        N635   1.157       .  T
C634        N636   1.157       .  T
C637       C1303   1.474       .  S
C637       C1382   1.392       .  A
C637        C642   1.411   1_655  A
C638       C1381   1.392       .  A
C638        C639   1.400       .  A
C638        H643   1.086       .  S
C639       C1384   1.434       .  A
C639        C646   1.439       .  S
C640       C1383   1.433       .  A
C640        C641   1.410   1_655  A
C641        C642   1.397       .  A
C641        H644   1.081       .  S
C642        C645   1.446       .  S
C645        N647   1.157       .  T
C646        N648   1.158       .  T
C649        C650   1.403       .  A
C649        C654   1.416       .  A
C650        C651   1.403       .  A
C650        H655   1.084       .  S
C651        C652   1.417       .  A
C651        C658   1.444       .  S
C652        C653   1.407       .  A
C653        C654   1.406       .  A
C653        H656   1.084       .  S
C654        C657   1.444       .  S
C657        N659   1.157       .  T
C658        N660   1.157   1_565  T
C661        C662   1.412       .  A
C661        C666   1.418       .  A
C662        C663   1.403       .  A
C662        H667   1.073       .  S
C663        C664   1.417       .  A
C663        C670   1.446       .  S
C664        C665   1.412       .  A
C665        C666   1.403       .  A
C665        H668   1.076       .  S
C666        C669   1.446       .  S
C670        N672   1.157       .  T
C673        C674   1.412       .  A
C673        C678   1.420       .  A
C674        C675   1.403       .  A
C674        H679   1.071       .  S
C675        C676   1.419       .  A
C675        C682   1.445       .  S
C676        C677   1.411       .  A
C677        C678   1.403       .  A
C677        H680   1.074       .  S
C678        C681   1.445       .  S
C681        N683   1.157       .  T
C682        N684   1.157       .  T
C685        C686   1.401       .  A
C685        C690   1.411       .  A
C686        C687   1.401       .  A
C686        H691   1.084       .  S
C687        C688   1.410       .  A
C687        C694   1.444       .  S
C688        C689   1.401       .  A
C689        C690   1.401       .  A
C689        H692   1.084       .  S
C690        C693   1.444       .  S
C693        N695   1.157       .  T
C694        N696   1.157       .  T
C697        C698   1.406       .  A
C697        C702   1.409       .  A
C698        C699   1.403       .  A
C698        H703   1.082       .  S
C699        C700   1.416       .  A
C699        C706   1.444       .  S
C700        C701   1.409       .  A
C701        C702   1.400       .  A
C701        H704   1.084       .  S
C702        C705   1.443       .  S
C705        N707   1.157       .  T
C706        N708   1.157       .  T
C709        C710   1.404       .  A
C710        C711   1.400       .  A
C710        H715   1.082       .  S
C711        C718   1.444       .  S
C712        C713   1.409       .  A
C713        C714   1.400   1_565  A
C713        H716   1.084       .  S
C714        C717   1.444   1_545  S
C717        N719   1.157       .  T
C718        N720   1.157       .  T
C721        C722   1.410       .  A
C721        C726   1.416       .  A
C722        C723   1.402       .  A
C722        H727   1.084       .  S
C723        C724   1.408       .  A
C723        C730   1.444       .  S
C724        C725   1.403       .  A
C725        C726   1.398       .  A
C725        H728   1.082       .  S
C726        C729   1.444       .  S
C729        N731   1.157       .  T
C730        N732   1.157       .  T
C733        C738   1.418       .  A
C734        C735   1.400       .  A
C734        H739   1.084       .  S
C735        C736   1.419       .  A
C735        C742   1.444       .  S
C737        C738   1.400       .  A
C737        H740   1.085       .  S
C738        C741   1.444       .  S
C741        N743   1.158       .  T
C742        N744   1.157       .  T
O745       Cu753   2.031       .  S
O745        C755   1.280       .  A
O746       Cu753   1.998       .  S
O746        C756   1.277       .  A
O747       Cu753   2.001       .  S
O747        C757   1.278       .  A
O748       Cu753   2.031       .  S
O748        C758   1.280       .  A
O749       Cu754   2.041       .  S
O749        C758   1.281       .  A
O750       Cu754   2.006       .  S
O750        C757   1.278       .  A
O751       Cu754   2.012       .  S
O751        C756   1.279       .  A
O752       Cu754   2.044       .  S
O752        C755   1.282       .  A
Cu753      Cu754   2.366       .  S
C755       C1278   1.492   1_545  S
C756        C969   1.489       .  S
C757        C984   1.490       .  S
C758        C783   1.490       .  S
C759        C760   1.547       .  S
C759        C765   1.543       .  S
C759        C763   1.547       .  S
C759        C924   1.548       .  S
C760        H767   1.086       .  S
C760        C761   1.371       .  D
C761        C762   1.531       .  S
C761        C957   1.486       .  S
C762        C766   1.532       .  S
C762        C764   1.532       .  S
C762        H768   1.109       .  S
C763        H769   1.086       .  S
C763        C764   1.372       .  D
C764        C945   1.491       .  S
C765        H770   1.080       .  S
C765        C766   1.357       .  D
C766        C933   1.478       .  S
O771       Cu779   2.003       .  S
O771        C781   1.279       .  A
O772       Cu779   2.033   1_554  S
O772        C782   1.280       .  A
O773       Cu779   2.030   1_554  S
O773        C783   1.280       .  A
O774       Cu779   2.000       .  S
O774        C784   1.278       .  A
O775       Cu780   2.007       .  S
O775        C784   1.278       .  A
O776       Cu780   2.041   1_554  S
O776        C783   1.281       .  A
O777       Cu780   2.044   1_554  S
O777        C782   1.281       .  A
O778       Cu780   2.012       .  S
O778        C781   1.278       .  A
Cu779      Cu780   2.366       .  S
C781        C948   1.492       .  S
C782       C1003   1.492       .  S
C784        C960   1.489       .  S
C785        C786   1.556       .  S
C785        C791   1.536       .  S
C785        C789   1.545       .  S
C785        C909   1.546       .  S
C786        H793   1.079       .  S
C786        C787   1.369       .  D
C787        C788   1.527       .  S
C787        C972   1.486       .  S
C788        C792   1.541       .  S
C788        C790   1.534       .  S
C788        H794   1.110       .  S
C789        H795   1.085       .  S
C789        C790   1.369       .  D
C790        C981   1.492       .  S
C791        H796   1.085       .  S
C791        C792   1.365       .  D
C792        C897   1.497       .  S
O797       Cu805   2.006       .  S
O797        C807   1.279       .  A
O798       Cu805   2.044       .  S
O799       Cu805   2.034       .  S
O800       Cu805   2.004       .  S
O800        C810   1.277       .  A
O801       Cu806   2.004       .  S
O802       Cu806   2.037       .  S
O802        C809   1.281       .  A
O803       Cu806   2.015       .  S
O803        C808   1.278       .  A
O804       Cu806   1.988       .  S
C808       C1069   1.486       .  S
C809        C824   1.490       .  S
O811       Cu819   2.039       .  S
O812       Cu819   2.002       .  S
O813       Cu819   2.003       .  S
O814       Cu819   2.030       .  S
O815       Cu820   2.040       .  S
O815        C824   1.281       .  A
O816       Cu820   2.006       .  S
O816        C823   1.278       .  A
O817       Cu820   1.995       .  S
O817        C822   1.276       .  A
O818       Cu820   2.022       .  S
O818        C821   1.280       .  A
C821       C1304   1.486   1_545  S
C822        C861   1.473       .  S
C823        C849   1.478       .  S
C825        C826   1.536       .  S
C825        C829   1.549       .  S
C825        C912   1.546   1_455  S
C826        H833   1.087   1_455  S
C827        C828   1.541       .  S
C827        C864   1.481       .  S
C828        C832   1.547       .  S
C828        C830   1.542       .  S
C828        H834   1.098       .  S
C829        H835   1.076   1_455  S
C830        C852   1.521       .  S
C831        H836   1.085       .  S
C831        C832   1.363       .  D
C832        C900   1.502       .  S
C837        C838   1.542       .  S
C837        C843   1.537       .  S
C837        C841   1.546       .  S
C837        C921   1.549       .  S
C838        H845   1.086       .  S
C838        C839   1.369       .  D
C839        C873   1.486       .  S
C840        C844   1.532       .  S
C840        H846   1.097       .  S
C841        H847   1.082       .  S
C841        C842   1.385       .  D
C842        C888   1.519       .  S
C843        H848   1.078       .  S
C844        C936   1.479       .  S
C849       C1346   1.396   1_545  A
C849        C854   1.410       .  A
C850       C1097   1.396       .  A
C850        C851   1.405       .  A
C850        H855   1.085       .  S
C851        C852   1.432       .  A
C851        C858   1.440       .  S
C852       C1101   1.410       .  A
C853       C1348   1.410   1_545  A
C853        C854   1.395       .  A
C857        N859   1.157       .  T
C858        N860   1.158       .  T
C861        C862   1.409       .  A
C861        C866   1.406       .  A
C862        C863   1.401       .  A
C862        H867   1.085       .  S
C863        C864   1.404       .  A
C863        C870   1.443       .  S
C864        C865   1.408       .  A
C865        C866   1.396       .  A
C865        H868   1.085       .  S
C866        C869   1.444       .  S
C870        N872   1.157       .  T
C873        C874   1.406       .  A
C874        C875   1.397       .  A
C874        H879   1.081       .  S
C875       C1372   1.408   1_545  A
C875        C882   1.444       .  S
C876       C1123   1.408       .  A
C877        C878   1.404       .  A
C877        H880   1.085       .  S
C878        C881   1.443       .  S
C881        N883   1.157       .  T
C882        N884   1.157       .  T
C885        C890   1.411       .  A
C886        C887   1.400       .  A
C886        H891   1.086       .  S
C887        C894   1.439       .  S
C888        C889   1.410       .  A
C889        C890   1.397       .  A
C889        H892   1.081       .  S
C890        C893   1.446       .  S
C893        N895   1.157       .  T
C894        N896   1.158       .  T
C897        C898   1.403       .  A
C897        C902   1.416       .  A
C898        C899   1.403       .  A
C898        H903   1.084       .  S
C899        C900   1.417       .  A
C899        C906   1.444       .  S
C900        C901   1.407       .  A
C901        C902   1.406       .  A
C901        H904   1.084       .  S
C902        C905   1.444       .  S
C905        N907   1.157       .  T
C906        N908   1.157       .  T
C909        C910   1.412       .  A
C909        C914   1.418       .  A
C910        C911   1.403       .  A
C910        H915   1.073       .  S
C911        C912   1.417       .  A
C911        C918   1.446       .  S
C912        C913   1.412       .  A
C913        C914   1.403       .  A
C913        H916   1.076       .  S
C914        C917   1.446       .  S
C917       N1167   1.157       .  T
C918        N920   1.157   1_655  T
N919       C1413   1.157   1_545  T
C921        C922   1.412       .  A
C921        C926   1.420       .  A
C922        C923   1.403       .  A
C922        H927   1.071       .  S
C923        C924   1.419       .  A
C923        C930   1.445       .  S
C924        C925   1.411       .  A
C925        C926   1.403       .  A
C925        H928   1.074       .  S
C926        C929   1.445       .  S
C929        N931   1.157       .  T
C930        N932   1.157       .  T
C933        C934   1.401       .  A
C933        C938   1.411       .  A
C934        C935   1.401       .  A
C934        H939   1.084       .  S
C935        C936   1.410       .  A
C935        C942   1.444       .  S
C936        C937   1.401       .  A
C937        C938   1.401       .  A
C937        H940   1.084       .  S
C938        C941   1.444       .  S
C941        N943   1.157   1_545  T
C942        N944   1.157       .  T
C945        C946   1.406       .  A
C945        C950   1.409       .  A
C946        C947   1.403       .  A
C946        H951   1.082       .  S
C947        C948   1.416       .  A
C947        C954   1.444       .  S
C948        C949   1.409       .  A
C949        C950   1.400       .  A
C949        H952   1.084       .  S
C950        C953   1.443       .  S
C953        N955   1.157       .  T
C954        N956   1.157       .  T
C957        C958   1.404       .  A
C957       C1458   1.409       .  A
C958        C959   1.400       .  A
C958        H963   1.082       .  S
C959       C1456   1.415   1_545  A
C959        C966   1.444       .  S
C960       C1207   1.415       .  A
C960        C961   1.409       .  A
C961        C962   1.400       .  A
C961        H964   1.084       .  S
C962       C1205   1.409       .  A
C962        C965   1.444       .  S
C965        N967   1.157       .  T
C966        N968   1.157       .  T
C969        C970   1.410       .  A
C969        C974   1.416       .  A
C970        C971   1.402       .  A
C970        H975   1.084       .  S
C971        C972   1.408       .  A
C971        C978   1.444       .  S
C972        C973   1.403       .  A
C973        C974   1.398       .  A
C973        H976   1.082       .  S
C974        C977   1.444       .  S
C977        N979   1.157       .  T
C978        N980   1.157       .  T
C981       C1230   1.402       .  A
C981        C986   1.418       .  A
C982       C1477   1.402       .  A
C982        C983   1.400   1_565  A
C982        H987   1.084       .  S
C983        C984   1.419       .  A
C983        C990   1.444       .  S
C984       C1481   1.406   1_545  A
C985       C1232   1.406       .  A
C985        C986   1.400       .  A
C985        H988   1.085       .  S
C986        C989   1.444       .  S
C989        N991   1.158       .  T
C990        N992   1.157       .  T
O993      Cu1001   2.031       .  S
O993       C1003   1.280       .  A
O994      Cu1001   1.998       .  S
O994       C1004   1.277       .  A
O995      Cu1001   2.001       .  S
O995       C1005   1.278       .  A
O996      Cu1001   2.031       .  S
O996       C1006   1.280       .  A
O997      Cu1002   2.041       .  S
O997       C1006   1.281       .  A
O998      Cu1002   2.006       .  S
O998       C1005   1.278       .  A
O999      Cu1002   2.012       .  S
O999       C1004   1.279       .  A
O1000     Cu1002   2.044       .  S
O1000      C1003   1.282       .  A
Cu1001    Cu1002   2.366       .  S
C1004      C1217   1.489       .  S
C1005      C1232   1.490       .  S
C1006      C1031   1.490       .  S
C1007      C1008   1.547       .  S
C1007      C1013   1.543       .  S
C1007      C1011   1.547       .  S
C1007      C1172   1.548       .  S
C1008      H1015   1.086       .  S
C1008      C1009   1.371       .  D
C1009      C1010   1.531       .  S
C1009      C1205   1.486       .  S
C1010      C1014   1.532       .  S
C1010      C1012   1.532       .  S
C1010      H1016   1.109       .  S
C1011      H1017   1.086       .  S
C1011      C1012   1.372       .  D
C1012      C1193   1.491       .  S
C1013      H1018   1.080       .  S
C1013      C1014   1.357       .  D
C1014      C1181   1.478       .  S
O1019     Cu1027   2.003       .  S
O1019      C1029   1.279       .  A
O1020     Cu1027   2.033   1_554  S
O1020      C1030   1.280       .  A
O1021     Cu1027   2.030   1_554  S
O1021      C1031   1.280       .  A
O1022     Cu1027   2.000       .  S
O1022      C1032   1.278       .  A
O1023     Cu1028   2.007       .  S
O1023      C1032   1.278       .  A
O1024     Cu1028   2.041   1_554  S
O1024      C1031   1.281       .  A
O1025     Cu1028   2.044   1_554  S
O1025      C1030   1.281       .  A
O1026     Cu1028   2.012       .  S
O1026      C1029   1.278       .  A
Cu1027    Cu1028   2.366       .  S
C1029      C1196   1.492       .  S
C1030      C1251   1.492       .  S
C1032      C1208   1.489       .  S
C1033      C1034   1.556       .  S
C1033      C1039   1.536       .  S
C1033      C1037   1.545       .  S
C1033      C1157   1.546       .  S
C1034      H1041   1.079       .  S
C1034      C1035   1.369       .  D
C1035      C1036   1.527       .  S
C1035      C1220   1.486       .  S
C1036      C1040   1.541       .  S
C1036      C1038   1.534       .  S
C1036      H1042   1.110       .  S
C1037      H1043   1.085       .  S
C1037      C1038   1.369       .  D
C1038      C1229   1.492       .  S
C1039      H1044   1.085       .  S
C1039      C1040   1.365       .  D
C1040      C1145   1.497       .  S
O1045     Cu1053   2.006       .  S
O1045      C1055   1.279       .  A
O1046     Cu1053   2.044       .  S
O1047     Cu1053   2.034       .  S
O1048     Cu1053   2.004       .  S
O1048      C1058   1.277       .  A
O1049     Cu1054   2.004       .  S
O1050     Cu1054   2.037       .  S
O1050      C1057   1.281       .  A
O1051     Cu1054   2.015       .  S
O1051      C1056   1.278       .  A
O1052     Cu1054   1.988       .  S
C1056      C1317   1.486       .  S
C1057      C1072   1.490       .  S
O1059     Cu1067   2.039       .  S
O1060     Cu1067   2.002       .  S
O1061     Cu1067   2.003       .  S
O1062     Cu1067   2.030       .  S
O1063     Cu1068   2.040       .  S
O1063      C1072   1.281       .  A
O1064     Cu1068   2.006       .  S
O1064      C1071   1.278       .  A
O1065     Cu1068   1.995       .  S
O1065      C1070   1.276       .  A
O1066     Cu1068   2.022       .  S
O1066      C1069   1.280       .  A
C1070      C1109   1.473       .  S
C1071      C1097   1.478       .  S
C1073      C1074   1.536       .  S
C1073      C1077   1.549       .  S
C1073      C1160   1.546   1_455  S
C1074      H1081   1.087   1_455  S
C1075      C1076   1.541       .  S
C1075      C1112   1.481       .  S
C1076      C1080   1.547       .  S
C1076      C1078   1.542       .  S
C1076      H1082   1.098       .  S
C1077      H1083   1.076   1_455  S
C1078      C1100   1.521       .  S
C1079      H1084   1.085       .  S
C1079      C1080   1.363       .  D
C1080      C1148   1.502       .  S
C1085      C1086   1.542       .  S
C1085      C1091   1.537       .  S
C1085      C1089   1.546       .  S
C1085      C1169   1.549       .  S
C1086      H1093   1.086       .  S
C1086      C1087   1.369       .  D
C1087      C1121   1.486       .  S
C1088      C1092   1.532       .  S
C1088      H1094   1.097       .  S
C1089      H1095   1.082       .  S
C1089      C1090   1.385       .  D
C1090      C1136   1.519       .  S
C1091      H1096   1.078       .  S
C1092      C1184   1.479       .  S
C1097      C1102   1.410       .  A
C1098      C1345   1.396       .  A
C1098      C1099   1.405       .  A
C1098      H1103   1.085       .  S
C1099      C1100   1.432       .  A
C1099      C1106   1.440       .  S
C1100      C1349   1.410       .  A
C1101      C1102   1.395       .  A
C1105      N1107   1.157       .  T
C1106      N1108   1.158       .  T
C1109      C1110   1.409       .  A
C1109      C1114   1.406       .  A
C1110      C1111   1.401       .  A
C1110      H1115   1.085       .  S
C1111      C1112   1.404       .  A
C1111      C1118   1.443       .  S
C1112      C1113   1.408       .  A
C1113      C1114   1.396       .  A
C1113      H1116   1.085       .  S
C1114      C1117   1.444       .  S
C1118      N1120   1.157       .  T
C1121      C1122   1.406       .  A
C1122      C1123   1.397       .  A
C1122      H1127   1.081       .  S
C1123      C1130   1.444       .  S
C1124      C1371   1.408       .  A
C1125      C1126   1.404       .  A
C1125      H1128   1.085       .  S
C1126      C1129   1.443       .  S
C1129      N1131   1.157       .  T
C1130      N1132   1.157       .  T
C1133      C1138   1.411       .  A
C1134      C1135   1.400       .  A
C1134      H1139   1.086       .  S
C1135      C1142   1.439       .  S
C1136      C1137   1.410       .  A
C1137      C1138   1.397       .  A
C1137      H1140   1.081       .  S
C1138      C1141   1.446       .  S
C1141      N1143   1.157       .  T
C1142      N1144   1.158       .  T
C1145      C1146   1.403       .  A
C1145      C1150   1.416       .  A
C1146      C1147   1.403       .  A
C1146      H1151   1.084       .  S
C1147      C1148   1.417       .  A
C1147      C1154   1.444       .  S
C1148      C1149   1.407       .  A
C1149      C1150   1.406       .  A
C1149      H1152   1.084       .  S
C1150      C1153   1.444       .  S
C1153      N1155   1.157       .  T
C1154      N1156   1.157       .  T
C1157      C1158   1.412       .  A
C1157      C1162   1.418       .  A
C1158      C1159   1.403       .  A
C1158      H1163   1.073       .  S
C1159      C1160   1.417       .  A
C1159      C1166   1.446       .  S
C1160      C1161   1.412       .  A
C1161      C1162   1.403       .  A
C1161      H1164   1.076       .  S
C1162      C1165   1.446       .  S
C1165      N1415   1.157       .  T
C1166      N1168   1.157   1_655  T
C1169      C1170   1.412       .  A
C1169      C1174   1.420       .  A
C1170      C1171   1.403       .  A
C1170      H1175   1.071       .  S
C1171      C1172   1.419       .  A
C1171      C1178   1.445       .  S
C1172      C1173   1.411       .  A
C1173      C1174   1.403       .  A
C1173      H1176   1.074       .  S
C1174      C1177   1.445       .  S
C1177      N1179   1.157       .  T
C1178      N1180   1.157       .  T
C1181      C1182   1.401       .  A
C1181      C1186   1.411       .  A
C1182      C1183   1.401       .  A
C1182      H1187   1.084       .  S
C1183      C1184   1.410       .  A
C1183      C1190   1.444       .  S
C1184      C1185   1.401       .  A
C1185      C1186   1.401       .  A
C1185      H1188   1.085       .  S
C1186      C1189   1.444       .  S
C1189      N1191   1.157       .  T
C1190      N1192   1.157       .  T
C1193      C1194   1.406       .  A
C1193      C1198   1.409       .  A
C1194      C1195   1.403       .  A
C1194      H1199   1.082       .  S
C1195      C1196   1.416       .  A
C1195      C1202   1.444       .  S
C1196      C1197   1.409       .  A
C1197      C1198   1.400       .  A
C1197      H1200   1.084       .  S
C1198      C1201   1.443       .  S
C1201      N1203   1.157       .  T
C1202      N1204   1.157       .  T
C1205      C1206   1.404       .  A
C1206      C1207   1.400       .  A
C1206      H1211   1.082       .  S
C1207      C1214   1.444       .  S
C1208      C1455   1.415       .  A
C1208      C1209   1.409       .  A
C1209      C1210   1.400       .  A
C1209      H1212   1.084       .  S
C1210      C1453   1.409       .  A
C1210      C1213   1.444       .  S
C1213      N1215   1.157       .  T
C1214      N1216   1.157       .  T
C1217      C1218   1.410       .  A
C1217      C1222   1.416       .  A
C1218      C1219   1.402       .  A
C1218      H1223   1.084       .  S
C1219      C1220   1.408       .  A
C1219      C1226   1.444       .  S
C1220      C1221   1.403       .  A
C1221      C1222   1.398       .  A
C1221      H1224   1.082       .  S
C1222      C1225   1.444       .  S
C1225      N1227   1.157       .  T
C1226      N1228   1.157       .  T
C1229      C1478   1.402       .  A
C1229      C1234   1.418       .  A
C1230      C1231   1.400       .  A
C1230      H1235   1.084       .  S
C1231      C1232   1.419       .  A
C1231      C1238   1.444       .  S
C1233      C1480   1.406       .  A
C1233      C1234   1.400       .  A
C1233      H1236   1.085       .  S
C1234      C1237   1.444       .  S
C1237      N1239   1.158       .  T
C1238      N1240   1.157       .  T
O1241     Cu1249   2.031       .  S
O1241      C1251   1.280       .  A
O1242     Cu1249   1.998       .  S
O1242      C1252   1.277       .  A
O1243     Cu1249   2.001       .  S
O1243      C1253   1.278       .  A
O1244     Cu1249   2.031       .  S
O1244      C1254   1.280       .  A
O1245     Cu1250   2.041       .  S
O1245      C1254   1.281       .  A
O1246     Cu1250   2.006       .  S
O1246      C1253   1.278       .  A
O1247     Cu1250   2.012       .  S
O1247      C1252   1.279       .  A
O1248     Cu1250   2.044       .  S
O1248      C1251   1.282       .  A
Cu1249    Cu1250   2.366       .  S
C1252      C1465   1.489       .  S
C1253      C1480   1.490       .  S
C1254      C1279   1.490       .  S
C1255      C1256   1.547       .  S
C1255      C1261   1.543       .  S
C1255      C1259   1.547       .  S
C1255      C1420   1.548       .  S
C1256      H1263   1.086       .  S
C1256      C1257   1.371       .  D
C1257      C1258   1.531       .  S
C1257      C1453   1.486       .  S
C1258      C1262   1.532       .  S
C1258      C1260   1.532       .  S
C1258      H1264   1.109       .  S
C1259      H1265   1.086       .  S
C1259      C1260   1.372       .  D
C1260      C1441   1.491       .  S
C1261      H1266   1.080       .  S
C1261      C1262   1.357       .  D
C1262      C1429   1.478       .  S
O1267     Cu1275   2.003       .  S
O1267      C1277   1.279       .  A
O1268     Cu1275   2.033   1_554  S
O1268      C1278   1.280       .  A
O1269     Cu1275   2.030   1_554  S
O1269      C1279   1.280       .  A
O1270     Cu1275   2.000       .  S
O1270      C1280   1.278       .  A
O1271     Cu1276   2.007       .  S
O1271      C1280   1.278       .  A
O1272     Cu1276   2.041   1_554  S
O1272      C1279   1.281       .  A
O1273     Cu1276   2.044   1_554  S
O1273      C1278   1.281       .  A
O1274     Cu1276   2.012       .  S
O1274      C1277   1.278       .  A
Cu1275    Cu1276   2.366       .  S
C1277      C1444   1.492       .  S
C1280      C1456   1.489       .  S
C1281      C1282   1.556       .  S
C1281      C1287   1.536       .  S
C1281      C1285   1.545       .  S
C1281      C1405   1.546       .  S
C1282      H1289   1.079       .  S
C1282      C1283   1.369       .  D
C1283      C1284   1.527       .  S
C1283      C1468   1.486       .  S
C1284      C1288   1.541       .  S
C1284      C1286   1.534       .  S
C1284      H1290   1.110       .  S
C1285      H1291   1.085       .  S
C1285      C1286   1.369       .  D
C1286      C1477   1.492       .  S
C1287      H1292   1.085       .  S
C1287      C1288   1.365       .  D
C1288      C1393   1.497       .  S
O1293     Cu1301   2.006       .  S
O1293      C1303   1.279       .  A
O1294     Cu1301   2.044       .  S
O1295     Cu1301   2.034       .  S
O1296     Cu1301   2.004       .  S
O1296      C1306   1.277       .  A
O1297     Cu1302   2.004       .  S
O1298     Cu1302   2.037       .  S
O1298      C1305   1.281       .  A
O1299     Cu1302   2.015       .  S
O1299      C1304   1.278       .  A
O1300     Cu1302   1.988       .  S
C1305      C1320   1.490       .  S
O1307     Cu1315   2.039       .  S
O1308     Cu1315   2.002       .  S
O1309     Cu1315   2.003       .  S
O1310     Cu1315   2.030       .  S
O1311     Cu1316   2.040       .  S
O1311      C1320   1.281       .  A
O1312     Cu1316   2.006       .  S
O1312      C1319   1.278       .  A
O1313     Cu1316   1.995       .  S
O1313      C1318   1.276       .  A
O1314     Cu1316   2.022       .  S
O1314      C1317   1.280       .  A
C1318      C1357   1.473       .  S
C1319      C1345   1.478       .  S
C1321      C1322   1.536       .  S
C1321      C1325   1.549       .  S
C1321      C1408   1.546   1_455  S
C1322      H1329   1.087   1_455  S
C1323      C1324   1.541       .  S
C1323      C1360   1.481       .  S
C1324      C1328   1.547       .  S
C1324      C1326   1.542       .  S
C1324      H1330   1.098       .  S
C1325      H1331   1.076   1_455  S
C1326      C1348   1.521       .  S
C1327      H1332   1.085       .  S
C1327      C1328   1.363       .  D
C1328      C1396   1.502       .  S
C1333      C1334   1.542       .  S
C1333      C1339   1.537       .  S
C1333      C1337   1.546       .  S
C1333      C1417   1.549       .  S
C1334      H1341   1.086       .  S
C1334      C1335   1.369       .  D
C1335      C1369   1.486       .  S
C1336      C1340   1.532       .  S
C1336      H1342   1.097       .  S
C1337      H1343   1.082       .  S
C1337      C1338   1.385       .  D
C1338      C1384   1.519       .  S
C1339      H1344   1.078       .  S
C1340      C1432   1.479       .  S
C1345      C1350   1.410       .  A
C1346      C1347   1.405       .  A
C1346      H1351   1.085       .  S
C1347      C1348   1.432       .  A
C1347      C1354   1.440       .  S
C1349      C1350   1.395       .  A
C1353      N1355   1.157       .  T
C1354      N1356   1.158       .  T
C1357      C1358   1.409       .  A
C1357      C1362   1.406       .  A
C1358      C1359   1.401       .  A
C1358      H1363   1.085       .  S
C1359      C1360   1.404       .  A
C1359      C1366   1.443       .  S
C1360      C1361   1.408       .  A
C1361      C1362   1.396       .  A
C1361      H1364   1.085       .  S
C1362      C1365   1.444       .  S
C1366      N1368   1.157       .  T
C1369      C1370   1.406       .  A
C1370      C1371   1.397       .  A
C1370      H1375   1.081       .  S
C1371      C1378   1.444       .  S
C1373      C1374   1.404       .  A
C1373      H1376   1.085       .  S
C1374      C1377   1.443       .  S
C1377      N1379   1.157       .  T
C1378      N1380   1.157       .  T
C1381      C1386   1.411       .  A
C1382      C1383   1.400       .  A
C1382      H1387   1.086       .  S
C1383      C1390   1.439       .  S
C1384      C1385   1.410       .  A
C1385      C1386   1.397       .  A
C1385      H1388   1.081       .  S
C1386      C1389   1.446       .  S
C1389      N1391   1.157       .  T
C1390      N1392   1.158       .  T
C1393      C1394   1.403       .  A
C1393      C1398   1.416       .  A
C1394      C1395   1.403       .  A
C1394      H1399   1.084       .  S
C1395      C1396   1.417       .  A
C1395      C1402   1.444       .  S
C1396      C1397   1.407       .  A
C1397      C1398   1.406       .  A
C1397      H1400   1.083       .  S
C1398      C1401   1.444       .  S
C1401      N1403   1.157       .  T
C1402      N1404   1.157   1_565  T
C1405      C1406   1.412       .  A
C1405      C1410   1.418       .  A
C1406      C1407   1.403       .  A
C1406      H1411   1.073       .  S
C1407      C1408   1.417       .  A
C1407      C1414   1.446       .  S
C1408      C1409   1.412       .  A
C1409      C1410   1.403       .  A
C1409      H1412   1.076       .  S
C1410      C1413   1.446       .  S
C1414      N1416   1.157   1_655  T
C1417      C1418   1.412       .  A
C1417      C1422   1.420       .  A
C1418      C1419   1.403       .  A
C1418      H1423   1.071       .  S
C1419      C1420   1.419       .  A
C1419      C1426   1.445       .  S
C1420      C1421   1.411       .  A
C1421      C1422   1.403       .  A
C1421      H1424   1.074       .  S
C1422      C1425   1.445       .  S
C1425      N1427   1.157       .  T
C1426      N1428   1.157       .  T
C1429      C1430   1.401       .  A
C1429      C1434   1.411       .  A
C1430      C1431   1.401       .  A
C1430      H1435   1.084       .  S
C1431      C1432   1.410       .  A
C1431      C1438   1.444       .  S
C1432      C1433   1.401       .  A
C1433      C1434   1.401       .  A
C1433      H1436   1.084       .  S
C1434      C1437   1.444       .  S
C1437      N1439   1.157       .  T
C1438      N1440   1.157       .  T
C1441      C1442   1.406       .  A
C1441      C1446   1.409       .  A
C1442      C1443   1.403       .  A
C1442      H1447   1.082       .  S
C1443      C1444   1.416       .  A
C1443      C1450   1.444       .  S
C1444      C1445   1.409       .  A
C1445      C1446   1.400       .  A
C1445      H1448   1.084       .  S
C1446      C1449   1.443       .  S
C1449      N1451   1.157       .  T
C1450      N1452   1.157       .  T
C1453      C1454   1.404       .  A
C1454      C1455   1.400       .  A
C1454      H1459   1.082       .  S
C1455      C1462   1.444       .  S
C1456      C1457   1.409       .  A
C1457      C1458   1.400   1_565  A
C1457      H1460   1.084       .  S
C1458      C1461   1.444   1_545  S
C1461      N1463   1.157       .  T
C1462      N1464   1.157       .  T
C1465      C1466   1.410       .  A
C1465      C1470   1.416       .  A
C1466      C1467   1.402       .  A
C1466      H1471   1.084       .  S
C1467      C1468   1.408       .  A
C1467      C1474   1.444       .  S
C1468      C1469   1.403       .  A
C1469      C1470   1.398       .  A
C1469      H1472   1.082       .  S
C1470      C1473   1.444       .  S
C1473      N1475   1.157       .  T
C1474      N1476   1.157       .  T
C1477      C1482   1.418       .  A
C1478      C1479   1.400       .  A
C1478      H1483   1.084       .  S
C1479      C1480   1.419       .  A
C1479      C1486   1.444       .  S
C1481      C1482   1.400       .  A
C1481      H1484   1.085       .  S
C1482      C1485   1.444       .  S
C1485      N1487   1.158       .  T
C1486      N1488   1.157       .  T
