geometry optimzed in LAMMPS
_audit_creation_date              2020-11-30 
_audit_creation_method            'lammps2cif' 
_symmetry_space_group_name_H-M    'P1' 
_symmetry_Int_Tables_number       1 
_symmetry_cell_setting            triclinic 
loop_ 
_symmetry_equiv_pos_as_xyz 
  x,y,z 
_cell_length_a                    44.24279455 
_cell_length_b                    52.60771683238588 
_cell_length_c                    43.63268544733402 
_cell_angle_alpha                 89.99230110648362 
_cell_angle_beta                  89.92979858838402 
_cell_angle_gamma                 90.09611573553413 
loop_ 
_atom_site_label 
_atom_site_type_symbol 
_atom_site_fract_x 
_atom_site_fract_y 
_atom_site_fract_z 
_atom_site_charge 
N1          N  0.46779365  0.47187569  0.43997633    -0.06800
N2          N  0.46327911  0.45449252  0.41859422    -0.58900
N3          N  0.44433738  0.02889205  0.46235720    -0.06500
N4          N  0.42324926  0.04579071  0.45607921    -0.61100
N5          N  0.46629735  0.03011154  0.44205204    -0.06100
N6          N  0.46069569  0.04804503  0.42164247    -0.58900
N7          N  0.44631985  0.47072516  0.46083340    -0.05800
N8          N  0.42699596  0.45237542  0.45430279    -0.61400
C9          C  0.43794218  0.44230769  0.42803821     0.95400
C10         C  0.43378917  0.05765691  0.43074598     0.95100
N11         N  0.46129675  0.02733271  0.05712817    -0.07000
N12         N  0.45362671  0.04376863  0.07859743    -0.59500
N13         N  0.44301788  0.46945263  0.03296669    -0.05100
N14         N  0.42273276  0.45138502  0.03714913    -0.60800
N15         N  0.46308476  0.46922727  0.05517720    -0.07000
N16         N  0.45695287  0.45085636  0.07486080    -0.59800
N17         N  0.44135612  0.02750942  0.03477989    -0.04800
N18         N  0.41980018  0.04416885  0.04056025    -0.60900
Mn19       Mn  0.44303585  0.49915884  0.99768376     1.18400
C20         C  0.42773860  0.05418322  0.06797133     0.97400
C21         C  0.43173500  0.43988521  0.06328530     0.98100
N22         N  0.03767659  0.03147715  0.44550888    -0.07100
N23         N  0.04352362  0.04986836  0.42583378    -0.63400
N24         N  0.05934316  0.47326022  0.46551862    -0.05900
N25         N  0.08072468  0.45642361  0.45990739    -0.64000
N26         N  0.03949004  0.47352409  0.44308794    -0.06600
N27         N  0.04710727  0.45699343  0.42167514    -0.63600
N28         N  0.05758435  0.03159708  0.46790405    -0.05500
N29         N  0.07723112  0.05027704  0.46402750    -0.64300
Mn30       Mn  0.00287525  0.00175907  0.44180104     1.10700
C31         C  0.06803564  0.06159586  0.43778497     0.98700
C32         C  0.07270854  0.44628113  0.43261397     0.98700
N33         N  0.03417378  0.47054411  0.05844880    -0.06600
N34         N  0.03898741  0.45218055  0.07847801    -0.61900
N35         N  0.05506449  0.02935237  0.04017006    -0.05900
N36         N  0.07520281  0.04684310  0.04749227    -0.58700
N37         N  0.03287611  0.02899678  0.06027701    -0.07200
N38         N  0.03730377  0.04650727  0.08154033    -0.61500
N39         N  0.05599759  0.47122619  0.03797631    -0.06200
N40         N  0.07610956  0.45335769  0.04371968    -0.58700
Mn41       Mn  0.99785012  0.99906704  0.05860272     1.20200
Mn42       Mn  0.05782718  0.00133387  0.00291719     1.10100
Cl43       Cl  0.00040556  0.00034050  0.00024851    -0.86700
C44         C  0.06513201  0.44144590  0.06892676     0.95700
C45         C  0.06368656  0.05755838  0.07309996     0.95500
N46         N  0.28563244  0.27657269  0.19012522    -0.06800
N47         N  0.29089628  0.29380573  0.16877418    -0.58900
N48         N  0.30514404  0.21865857  0.21335129    -0.06500
N49         N  0.32465249  0.20028428  0.20767472    -0.61100
N50         N  0.28309867  0.21825818  0.19312720    -0.06100
N51         N  0.28694932  0.19943367  0.17349438    -0.58900
N52         N  0.30708470  0.27702612  0.21096788    -0.05800
N53         N  0.32723336  0.29476147  0.20443466    -0.61400
C54         C  0.31680850  0.30505560  0.17810064     0.95400
C55         C  0.31282190  0.18833404  0.18299384     0.95100
N56         N  0.28772095  0.22245660  0.30807823    -0.07000
N57         N  0.29370200  0.20541739  0.32944551    -0.59500
N58         N  0.30971653  0.27914329  0.28306548    -0.05100
N59         N  0.33060421  0.29679504  0.28695074    -0.60800
N60         N  0.28912380  0.28063525  0.30476957    -0.07000
N61         N  0.29539082  0.29947102  0.32369286    -0.59800
N62         N  0.30763370  0.22098945  0.28571824    -0.04800
N63         N  0.32739772  0.20280852  0.29126797    -0.60900
Mn64       Mn  0.30828297  0.24890166  0.24822704     1.18400
C65         C  0.31842415  0.19325799  0.31857668     0.97400
C66         C  0.32118993  0.30946740  0.31218400     0.98100
N67         N  0.21204464  0.22045375  0.19534024    -0.07100
N68         N  0.20531404  0.20212086  0.17588027    -0.63400
N69         N  0.19440556  0.27997192  0.21522824    -0.05900
N70         N  0.17541558  0.29888768  0.21041079    -0.64000
N71         N  0.21448251  0.27872647  0.19302700    -0.06600
N72         N  0.20939570  0.29662279  0.17247858    -0.63600
N73         N  0.19193544  0.22141335  0.21751489    -0.05500
N74         N  0.17116223  0.20364101  0.21368417    -0.64300
Mn75       Mn  0.24877651  0.24845562  0.19198780     1.10700
C76         C  0.17990726  0.19164788  0.18771002     0.98700
C77         C  0.18503815  0.30910769  0.18367910     0.98700
N78         N  0.21794220  0.28231005  0.30741726    -0.06600
N79         N  0.21359358  0.30149048  0.32650825    -0.61900
N80         N  0.19450958  0.22363050  0.28968905    -0.05900
N81         N  0.17407538  0.20620532  0.29643102    -0.58700
N82         N  0.21626781  0.22367321  0.31021868    -0.07200
N83         N  0.21118363  0.20607932  0.33121812    -0.61500
N84         N  0.19640393  0.28170349  0.28672493    -0.06200
N85         N  0.17701019  0.30027176  0.29128226    -0.58700
Mn86       Mn  0.25278023  0.25230640  0.30860717     1.20200
Mn87       Mn  0.19345809  0.25163527  0.25231300     1.10100
Cl88       Cl  0.25084779  0.25027024  0.25030283    -0.86700
C89         C  0.18789375  0.31254268  0.31610518     0.95700
C90         C  0.18488637  0.19522754  0.32220956     0.95500
C91         C  0.16253121  0.17125625  0.17238167    -0.20600
C92         C  0.14400890  0.15416794  0.18893187     0.35700
C93         C  0.12782366  0.13530270  0.17299300    -0.26500
C94         C  0.12972212  0.13338250  0.14101295     0.02100
C95         C  0.14757889  0.15079539  0.12440878     0.26900
C96         C  0.16414932  0.16932439  0.14032421    -0.25700
N97         N  0.14195236  0.15581453  0.22175780    -0.83100
H98         H  0.11377190  0.12195796  0.18549246     0.12700
C99         C  0.11257912  0.11326631  0.12499552     0.02100
N100        N  0.14785319  0.15023393  0.09143693    -0.81600
H101        H  0.17786093  0.18272696  0.12753645     0.17500
C102        C  0.08184546  0.11705634  0.11867763    -0.26500
C103        C  0.06519081  0.09889996  0.10207352     0.35600
C104        C  0.07982810  0.07685104  0.09133365    -0.20500
C105        C  0.11045486  0.07291945  0.09811603    -0.25700
C106        C  0.12687040  0.09068988  0.11544700     0.26900
H107        H  0.07099847  0.13436678  0.12640507     0.12700
N108        N  0.03374471  0.10299177  0.09551055    -0.83000
H109        H  0.12141082  0.05566235  0.09036494     0.17500
N110        N  0.15756918  0.08551116  0.12430052    -0.81600
H111        H  0.02640406  0.12009213  0.10517090     0.33200
H112        H  0.03155939  0.10493846  0.07176605     0.37700
H113        H  0.16434307  0.06770568  0.11618929     0.33100
H114        H  0.17165220  0.09885872  0.11378915     0.29800
H115        H  0.16131501  0.16492084  0.08274787     0.33100
H116        H  0.15793882  0.13328672  0.08439700     0.29800
H117        H  0.16327416  0.15157146  0.23069636     0.37700
H118        H  0.12709675  0.14204586  0.23029894     0.33200
C119        C  0.08474838  0.08200389  0.42180517    -0.20600
C120        C  0.09988673  0.10153765  0.43782832     0.35700
C121        C  0.11550908  0.12036668  0.42119814    -0.26500
C122        C  0.11665121  0.11967122  0.38907355     0.02100
C123        C  0.10252832  0.09961794  0.37315576     0.26900
C124        C  0.08613964  0.08131907  0.38968013    -0.25700
N125        N  0.09919135  0.10228125  0.47075829    -0.83100
H126        H  0.12696383  0.13559050  0.43325610     0.12700
C127        C  0.13391990  0.13940995  0.37242851     0.02100
N128        N  0.10624879  0.09712479  0.34052776    -0.81600
H129        H  0.07519760  0.06592638  0.37744823     0.17500
C130        C  0.16549261  0.13756135  0.37113699    -0.26500
C131        C  0.18286140  0.15578100  0.35536333     0.35600
C132        C  0.16810028  0.17583557  0.33994342    -0.20500
C133        C  0.13646057  0.17763137  0.34137215    -0.25700
C134        C  0.11922167  0.15991872  0.35800720     0.26900
H135        H  0.17656977  0.12183668  0.38255670     0.12700
N136        N  0.21520801  0.15343313  0.35410784    -0.83000
H137        H  0.12519091  0.19330151  0.33004162     0.17500
N138        N  0.08712225  0.16330819  0.36139794    -0.81600
H139        H  0.22215614  0.13667024  0.36485494     0.33200
H140        H  0.22438376  0.16830118  0.36699117     0.37700
H141        H  0.08009598  0.17986035  0.35023277     0.33100
H142        H  0.07613576  0.14825771  0.35050781     0.29800
H143        H  0.09554443  0.08065885  0.33260970     0.33100
H144        H  0.09541795  0.11235308  0.32989459     0.29800
H145        H  0.07679936  0.10534984  0.47746986     0.37700
H146        H  0.11173187  0.11771799  0.47892920     0.33200
C147        C  0.16848479  0.32914463  0.16697584    -0.20600
C148        C  0.16495475  0.32794447  0.13486940     0.35700
C149        C  0.14768855  0.34651201  0.11992931    -0.26500
C150        C  0.13411371  0.36641082  0.13625481     0.02100
C151        C  0.13784680  0.36781763  0.16833713     0.26900
C152        C  0.15473907  0.34894540  0.18344699    -0.25700
N153        N  0.17811071  0.30746475  0.11761816    -0.83100
H154        H  0.14444416  0.34531290  0.09535727     0.12700
C155        C  0.11635330  0.38563881  0.11909002     0.02100
N156        N  0.12470934  0.38845779  0.18531865    -0.81600
H157        H  0.15748587  0.34982058  0.20810446     0.17500
C158        C  0.08570507  0.38934706  0.12608434    -0.26500
C159        C  0.06805325  0.40679431  0.10944500     0.35600
C160        C  0.08162947  0.42121464  0.08571583    -0.20500
C161        C  0.11214460  0.41700152  0.07844264    -0.25700
C162        C  0.12962097  0.39945712  0.09486599     0.26900
H163        H  0.07541979  0.37822308  0.14422839     0.12700
N164        N  0.03645029  0.40961477  0.11636085    -0.83000
H165        H  0.12270382  0.42782480  0.06021318     0.17500
N166        N  0.16094047  0.39576647  0.08724002    -0.81600
H167        H  0.03021901  0.39785756  0.13464131     0.33200
H168        H  0.02429116  0.40325356  0.09730046     0.37700
H169        H  0.16718744  0.40718629  0.06866249     0.33100
H170        H  0.17380842  0.40180527  0.10596391     0.29800
H171        H  0.12957716  0.38668630  0.20866569     0.33100
H172        H  0.13505971  0.40525718  0.17791378     0.29800
H173        H  0.16740586  0.29065201  0.12444520     0.37700
H174        H  0.17367914  0.30960257  0.09422792     0.33200
C175        C  0.40918797  0.07285053  0.08503301    -0.20600
C176        C  0.41045680  0.07476382  0.11735814     0.35700
C177        C  0.39293399  0.09320785  0.13235529    -0.26500
C178        C  0.37408673  0.10952877  0.11582451     0.02100
C179        C  0.37237716  0.10749216  0.08370525     0.26900
C180        C  0.38978627  0.08898914  0.06861600    -0.25700
N181        N  0.42919757  0.05787554  0.13490718    -0.83100
H182        H  0.39404716  0.09500623  0.15707488     0.12700
C183        C  0.35760882  0.12959982  0.13249622     0.02100
N184        N  0.35370474  0.12470950  0.06654890    -0.81600
H185        H  0.38870239  0.08754174  0.04386964     0.17500
C186        C  0.37210659  0.15289713  0.13755222    -0.26500
C187        C  0.35784745  0.17227444  0.15425434     0.35600
C188        C  0.32846330  0.16821213  0.16580089    -0.20500
C189        C  0.31379522  0.14497948  0.16048797    -0.25700
C190        C  0.32835851  0.12537549  0.14428339     0.26900
H191        H  0.39467659  0.15586501  0.12853439     0.12700
N192        N  0.37289766  0.19615982  0.15924946    -0.83000
H193        H  0.29124370  0.14199334  0.16953660     0.17500
N194        N  0.31401796  0.10104210  0.14046032    -0.81600
H195        H  0.39445763  0.19599020  0.14941090     0.33200
H196        H  0.36060263  0.21018698  0.14776376     0.37700
H197        H  0.29282309  0.10089145  0.15108649     0.33100
H198        H  0.31018351  0.09832691  0.11706277     0.29800
H199        H  0.35544311  0.12099445  0.04307174     0.33100
H200        H  0.33121981  0.12123076  0.07261340     0.29800
H201        H  0.42039372  0.03953190  0.13242558     0.37700
H202        H  0.42794364  0.06221476  0.15825872     0.33200
C203        C  0.33855559  0.32990768  0.32717836    -0.20600
C204        C  0.32394688  0.35039634  0.34184725     0.35700
C205        C  0.34138350  0.36873877  0.35721922    -0.26500
C206        C  0.37295720  0.36679416  0.35832050     0.02100
C207        C  0.38755166  0.34617026  0.34401213     0.26900
C208        C  0.37018360  0.32813715  0.32807983    -0.25700
N209        N  0.29156168  0.35254597  0.34093377    -0.83100
H210        H  0.33037329  0.38453592  0.36858042     0.12700
C211        C  0.39031053  0.38595748  0.37572202     0.02100
N212        N  0.41969484  0.34296317  0.34699540    -0.81600
H213        H  0.38127974  0.31211700  0.31727591     0.17500
C214        C  0.39237233  0.38352518  0.40762377    -0.26500
C215        C  0.40819784  0.40154255  0.42518462     0.35600
C216        C  0.42239012  0.42222761  0.41037564    -0.20500
C217        C  0.42047324  0.42450973  0.37838003    -0.25700
C218        C  0.40408360  0.40677523  0.36090001     0.26900
H219        H  0.38150094  0.36753460  0.41880022     0.12700
N220        N  0.41014404  0.39880391  0.45790706    -0.83000
H221        H  0.43090939  0.44066436  0.36713412     0.17500
N222        N  0.40019940  0.41044086  0.32847243    -0.81600
H223        H  0.39832630  0.38265790  0.46517477     0.33200
H224        H  0.43285015  0.39577303  0.46340465     0.37700
H225        H  0.41094234  0.42714862  0.32134779     0.33100
H226        H  0.41095727  0.39554804  0.31705264     0.29800
H227        H  0.42669303  0.32629516  0.33605349     0.33100
H228        H  0.43034993  0.35794668  0.33558857     0.29800
H229        H  0.28530797  0.35536718  0.31808449     0.37700
H230        H  0.28439655  0.36860185  0.35303607     0.33200
C231        C  0.41680107  0.07715111  0.41365980    -0.20600
C232        C  0.38512320  0.07539916  0.41014884     0.35700
C233        C  0.36973217  0.09447826  0.39399545    -0.26500
C234        C  0.38537785  0.11513141  0.38140055     0.02100
C235        C  0.41695707  0.11699358  0.38491762     0.26900
C236        C  0.43246081  0.09774229  0.40073722    -0.25700
N237        N  0.36879104  0.05407865  0.42251938    -0.83100
H238        H  0.34544043  0.09327482  0.39113027     0.12700
C239        C  0.36817735  0.13493908  0.36507625     0.02100
N240        N  0.43293904  0.13876178  0.37322969    -0.81600
H241        H  0.45673969  0.09907792  0.40360418     0.17500
C242        C  0.35521968  0.15477300  0.38195268    -0.26500
C243        C  0.33856541  0.17397669  0.36732692     0.35600
C244        C  0.33496425  0.17318845  0.33517742    -0.20500
C245        C  0.34794691  0.15324380  0.31837148    -0.25700
C246        C  0.36419644  0.13385529  0.33309184     0.26900
H247        H  0.35830453  0.15529902  0.40658344     0.12700
N248        N  0.32592764  0.19450103  0.38489149    -0.83000
H249        H  0.34497491  0.15259413  0.29373264     0.17500
N250        N  0.37593704  0.11274286  0.31588831    -0.81600
H251        H  0.33040510  0.19204673  0.40822797     0.33200
H252        H  0.33698342  0.21120546  0.37825309     0.37700
H253        H  0.37038924  0.11452779  0.29270137     0.33100
H254        H  0.39950083  0.11335323  0.31715457     0.29800
H255        H  0.45595728  0.13749322  0.37840042     0.33100
H256        H  0.43128948  0.13852220  0.34935290     0.29800
H257        H  0.37604301  0.03781352  0.41088106     0.37700
H258        H  0.34565959  0.05583691  0.41814011     0.33200
C259        C  0.17227912  0.33401891  0.33137884    -0.20600
C260        C  0.14089366  0.33823711  0.32750671     0.35700
C261        C  0.12678872  0.35783525  0.34388467    -0.26500
C262        C  0.14322971  0.37373985  0.36347926     0.02100
C263        C  0.17458103  0.36991732  0.36703630     0.26900
C264        C  0.18874729  0.34994398  0.35112896    -0.25700
N265        N  0.12310054  0.32217222  0.30786174    -0.83100
H266        H  0.10262555  0.36060211  0.34159874     0.12700
C267        C  0.12670347  0.39354438  0.38093209     0.02500
N268        N  0.19183081  0.38629401  0.38678021    -0.81600
H269        H  0.21278302  0.34687281  0.35406647     0.17500
C270        C  0.12757462  0.39316128  0.41305635    -0.26500
C271        C  0.11011336  0.41014358  0.43048066     0.35600
C272        C  0.09124286  0.42777087  0.41537741    -0.20500
C273        C  0.09052236  0.42822622  0.38321335    -0.25700
C274        C  0.10837544  0.41153082  0.36582500     0.26900
H275        H  0.14132075  0.37907038  0.42457622     0.12700
N276        N  0.11095710  0.40910994  0.46339515    -0.83000
H277        H  0.07639509  0.44197954  0.37157833     0.17500
N278        N  0.10809375  0.41278034  0.33289933    -0.81600
H279        H  0.12621780  0.39526327  0.47082126     0.33200
H280        H  0.08958532  0.40335740  0.47097035     0.37700
H281        H  0.09340123  0.42701258  0.32536713     0.33100
H282        H  0.12977081  0.41806911  0.32573196     0.29800
H283        H  0.21455646  0.38087048  0.38696903     0.33100
H284        H  0.19108035  0.40460659  0.37750171     0.29800
H285        H  0.12881766  0.32669225  0.28525208     0.37700
H286        H  0.10009522  0.32632814  0.31006637     0.33200
C287        C  0.41475664  0.41939501  0.07881298    -0.20600
C288        C  0.38288234  0.41794080  0.07721852     0.35700
C289        C  0.36768051  0.39872444  0.09342689    -0.26500
C290        C  0.38362657  0.38108601  0.11112762     0.02100
C291        C  0.41547685  0.38187559  0.11185006     0.26900
C292        C  0.43071336  0.40132631  0.09602442    -0.25700
N293        N  0.36598915  0.43632716  0.05991895    -0.83100
H294        H  0.34322030  0.39770175  0.09271348     0.12700
C295        C  0.36644156  0.36182979  0.12857738     0.02100
N296        N  0.43221232  0.36243657  0.12759674    -0.81600
H297        H  0.45517937  0.40220446  0.09677996     0.17500
C298        C  0.35434080  0.34089225  0.11297769    -0.26500
C299        C  0.33743022  0.32234674  0.12861967     0.35600
C300        C  0.33312427  0.32469207  0.16054461    -0.20500
C301        C  0.34487867  0.34585079  0.17604832    -0.25700
C302        C  0.36081764  0.36488094  0.16018184     0.26900
H303        H  0.35815650  0.33906090  0.08853682     0.12700
N304        N  0.32507639  0.30097125  0.11233637    -0.83000
H305        H  0.34090608  0.34782813  0.20044755     0.17500
N306        N  0.36989784  0.38781336  0.17562548    -0.81600
H307        H  0.32998502  0.30229850  0.08894440     0.33200
H308        H  0.33591725  0.28462529  0.12034776     0.37700
H309        H  0.36292342  0.38744797  0.19852729     0.33100
H310        H  0.39345901  0.38861534  0.17591677     0.29800
H311        H  0.45545376  0.36539935  0.12500916     0.33100
H312        H  0.42771253  0.36390792  0.15100762     0.29800
H313        H  0.36881663  0.45396844  0.07058687     0.37700
H314        H  0.34286771  0.43223090  0.06074190     0.33200
N315        N  0.46779255  0.47187436  0.93997865    -0.06800
N316        N  0.46327735  0.45449076  0.91859724    -0.58900
N317        N  0.44433585  0.02889104  0.96235991    -0.06500
N318        N  0.42324781  0.04579028  0.95608374    -0.61100
N319        N  0.46629517  0.03011084  0.94205401    -0.06100
N320        N  0.46069307  0.04804535  0.92164577    -0.58900
N321        N  0.44631955  0.47072418  0.96083649    -0.05800
N322        N  0.42699550  0.45237437  0.95430729    -0.61400
C323        C  0.43794078  0.44230621  0.92804273     0.95400
C324        C  0.43378704  0.05765738  0.93075086     0.95100
N325        N  0.46129787  0.02733218  0.55712673    -0.07000
N326        N  0.45362995  0.04376862  0.57859599    -0.59500
N327        N  0.44301579  0.46945372  0.53296450    -0.05100
N328        N  0.42272862  0.45138775  0.53714739    -0.60800
N329        N  0.46308280  0.46922705  0.55517493    -0.07000
N330        N  0.45694859  0.45085705  0.57485898    -0.59800
N331        N  0.44135735  0.02751059  0.53477833    -0.04800
N332        N  0.41980331  0.04417182  0.54055897    -0.60900
Mn333      Mn  0.44303604  0.49915998  0.49768153     1.18400
C334        C  0.42774312  0.05418535  0.56797022     0.97400
C335        C  0.43172937  0.43988764  0.56328393     0.98100
N336        N  0.03767439  0.03147572  0.94550717    -0.07100
N337        N  0.04351991  0.04986651  0.92583114    -0.63400
N338        N  0.05934237  0.47325952  0.96551870    -0.05900
N339        N  0.08072530  0.45642419  0.95990764    -0.64000
N340        N  0.03948951  0.47352275  0.94308776    -0.06600
N341        N  0.04710860  0.45699273  0.92167476    -0.63600
N342        N  0.05758323  0.03159621  0.96790136    -0.05500
N343        N  0.07722945  0.05027639  0.96402304    -0.64300
Mn344      Mn  0.00287358  0.00175786  0.94180151     1.10700
C345        C  0.06803232  0.06159450  0.93778050     0.98700
C346        C  0.07271059  0.44628157  0.93261400     0.98700
N347        N  0.03417418  0.47054221  0.55844800    -0.06600
N348        N  0.03898962  0.45217914  0.57847753    -0.61900
N349        N  0.05506422  0.02935233  0.54017214    -0.05900
N350        N  0.07520132  0.04684393  0.54749514    -0.58700
N351        N  0.03287534  0.02899587  0.56027847    -0.07200
N352        N  0.03730119  0.04650668  0.58154192    -0.61500
N353        N  0.05599837  0.47122557  0.53797596    -0.06200
N354        N  0.07611213  0.45335859  0.54371974    -0.58700
Mn355      Mn  0.99784980  0.99906582  0.55860182     1.20200
Mn356      Mn  0.05782775  0.00133413  0.50291813     1.10100
Cl357      Cl  0.00040600  0.00034068  0.50024785    -0.86700
C358        C  0.06513556  0.44144620  0.56892671     0.95700
C359        C  0.06368338  0.05755906  0.57310225     0.95500
N360        N  0.28563053  0.27657030  0.69012166    -0.06800
N361        N  0.29089460  0.29380149  0.66876833    -0.58900
N362        N  0.30514547  0.21865895  0.71335237    -0.06500
N363        N  0.32465546  0.20028563  0.70767742    -0.61100
N364        N  0.28310011  0.21825610  0.69312844    -0.06100
N365        N  0.28695240  0.19943074  0.67349711    -0.58900
N366        N  0.30708212  0.27702614  0.71096506    -0.05800
N367        N  0.32723020  0.29476148  0.70443030    -0.61400
C368        C  0.31680596  0.30505297  0.67809461     0.95400
C369        C  0.31282615  0.18833343  0.68299746     0.95100
N370        N  0.28772304  0.22245782  0.80807779    -0.07000
N371        N  0.29370338  0.20541772  0.82944416    -0.59500
N372        N  0.30971631  0.27914528  0.78306385    -0.05100
N373        N  0.33060481  0.29679620  0.78695088    -0.60800
N374        N  0.28912368  0.28063641  0.80476809    -0.07000
N375        N  0.29539135  0.29947078  0.82369305    -0.59800
N376        N  0.30763589  0.22099101  0.78571786    -0.04800
N377        N  0.32739916  0.20280916  0.79126665    -0.60900
Mn378      Mn  0.30828307  0.24890301  0.74822603     1.18400
C379        C  0.31842508  0.19325792  0.81857494     0.97400
C380        C  0.32119078  0.30946725  0.81218529     0.98100
N381        N  0.21204701  0.22044777  0.69534348    -0.07100
N382        N  0.20532169  0.20211007  0.67588825    -0.63400
N383        N  0.19440383  0.27996749  0.71522682    -0.05900
N384        N  0.17541474  0.29888402  0.71040963    -0.64000
N385        N  0.21448028  0.27872125  0.69302518    -0.06600
N386        N  0.20939403  0.29661770  0.67247681    -0.63600
N387        N  0.19193769  0.22140734  0.71751805    -0.05500
N388        N  0.17116967  0.20362982  0.71369208    -0.64300
Mn389      Mn  0.24877605  0.24845175  0.69198739     1.10700
C390        C  0.17991819  0.19163386  0.68772084     0.98700
C391        C  0.18503726  0.30910349  0.68367754     0.98700
N392        N  0.21794233  0.28230964  0.80741610    -0.06600
N393        N  0.21359442  0.30149054  0.82650648    -0.61900
N394        N  0.19451092  0.22362971  0.78969138    -0.05900
N395        N  0.17407572  0.20620602  0.79643512    -0.58700
N396        N  0.21626933  0.22367284  0.81022079    -0.07200
N397        N  0.21118407  0.20608053  0.83122212    -0.61500
N398        N  0.19640327  0.28170237  0.78672455    -0.06200
N399        N  0.17700940  0.30027065  0.79128226    -0.58700
Mn400      Mn  0.25278122  0.25230674  0.80860672     1.20200
Mn401      Mn  0.19345808  0.25163236  0.75231366     1.10100
Cl402      Cl  0.25084792  0.25026923  0.75030255    -0.86700
C403        C  0.18789410  0.31254235  0.81610432     0.95700
C404        C  0.18488590  0.19522947  0.82221457     0.95500
C405        C  0.16254634  0.17123795  0.67239589    -0.20600
C406        C  0.14403403  0.15414465  0.68894992     0.35700
C407        C  0.12784183  0.13528214  0.67301310    -0.26500
C408        C  0.12972830  0.13336700  0.64103180     0.02100
C409        C  0.14758533  0.15077804  0.62442542     0.26900
C410        C  0.16415776  0.16930736  0.64033806    -0.25700
N411        N  0.14199615  0.15578292  0.72177762    -0.83100
H412        H  0.11379470  0.12193551  0.68551494     0.12700
C413        C  0.11257925  0.11325437  0.62501437     0.02100
N414        N  0.14786146  0.15021149  0.59145382    -0.81600
H415        H  0.17786618  0.18271072  0.62754800     0.17500
C416        C  0.08185282  0.11705900  0.61867271    -0.26500
C417        C  0.06519708  0.09890785  0.60206089     0.35600
C418        C  0.07982579  0.07684858  0.59133990    -0.20500
C419        C  0.11044517  0.07290358  0.59814424    -0.25700
C420        C  0.12686187  0.09067035  0.61547944     0.26900
H421        H  0.07101324  0.13437702  0.62638611     0.12700
N422        N  0.03375968  0.10301557  0.59546989    -0.83000
H423        H  0.12139464  0.05564001  0.59040471     0.17500
N424        N  0.15755489  0.08548323  0.62434569    -0.81600
H425        H  0.02642489  0.12012259  0.60511765     0.33200
H426        H  0.03159551  0.10495763  0.57172278     0.37700
H427        H  0.16432368  0.06767428  0.61624100     0.33100
H428        H  0.17164670  0.09882502  0.61383543     0.29800
H429        H  0.16132632  0.16489545  0.58276230     0.33100
H430        H  0.15794551  0.13326174  0.58441980     0.29800
H431        H  0.16332419  0.15154099  0.73070166     0.37700
H432        H  0.12714886  0.14200949  0.73032257     0.33200
C433        C  0.08474160  0.08200437  0.92180037    -0.20600
C434        C  0.09988017  0.10153780  0.93782373     0.35700
C435        C  0.11549951  0.12036858  0.92119383    -0.26500
C436        C  0.11663856  0.11967548  0.88906914     0.02100
C437        C  0.10251383  0.09962349  0.87315052     0.26900
C438        C  0.08612826  0.08132251  0.88967493    -0.25700
N439        N  0.09918856  0.10227906  0.97075383    -0.83100
H440        H  0.12695541  0.13559156  0.93325223     0.12700
C441        C  0.13390999  0.13941352  0.87242589     0.02100
N442        N  0.10622985  0.09713340  0.84052166    -0.81600
H443        H  0.07518536  0.06593046  0.87744264     0.17500
C444        C  0.16548264  0.13756230  0.87113626    -0.26500
C445        C  0.18285488  0.15578229  0.85536710     0.35600
C446        C  0.16809728  0.17583968  0.83994929    -0.20500
C447        C  0.13645779  0.17763887  0.84137744    -0.25700
C448        C  0.11921545  0.15992589  0.85800824     0.26900
H449        H  0.17655706  0.12183537  0.88255419     0.12700
N450        N  0.21520130  0.15343204  0.85411394    -0.83000
H451        H  0.12519092  0.19331147  0.83004897     0.17500
N452        N  0.08711648  0.16331858  0.86139843    -0.81600
H453        H  0.22214684  0.13666821  0.86486063     0.33200
H454        H  0.22437762  0.16829902  0.86699868     0.37700
H455        H  0.08009344  0.17987338  0.85023687     0.33100
H456        H  0.07612801  0.14827119  0.85050418     0.29800
H457        H  0.09552520  0.08066781  0.83260304     0.33100
H458        H  0.09539657  0.11236223  0.82989213     0.29800
H459        H  0.07679715  0.10534603  0.97746833     0.37700
H460        H  0.11172888  0.11771590  0.97892489     0.33200
C461        C  0.16848640  0.32914259  0.66697517    -0.20600
C462        C  0.16495928  0.32794536  0.63486819     0.35700
C463        C  0.14769655  0.34651544  0.61992853    -0.26500
C464        C  0.13412245  0.36641407  0.63625491     0.02100
C465        C  0.13785358  0.36781853  0.66833764     0.26900
C466        C  0.15474187  0.34894350  0.68344714    -0.25700
N467        N  0.17811441  0.30746594  0.61761581    -0.83100
H468        H  0.14445369  0.34531809  0.59535617     0.12700
C469        C  0.11636196  0.38564266  0.61909101     0.02100
N470        N  0.12471831  0.38845925  0.68531992    -0.81600
H471        H  0.15748680  0.34981678  0.70810491     0.17500
C472        C  0.08571341  0.38934934  0.62608498    -0.26500
C473        C  0.06806018  0.40679514  0.60944505     0.35600
C474        C  0.08163537  0.42121644  0.58571626    -0.20500
C475        C  0.11215113  0.41700528  0.57844359    -0.25700
C476        C  0.12962871  0.39946144  0.59486680     0.26900
H477        H  0.07542870  0.37822462  0.64422870     0.12700
N478        N  0.03645658  0.40961276  0.61635946    -0.83000
H479        H  0.12270960  0.42782912  0.56021416     0.17500
N480        N  0.16094808  0.39577127  0.58723986    -0.81600
H481        H  0.03022598  0.39785497  0.63463965     0.33200
H482        H  0.02429916  0.40325043  0.59729852     0.37700
H483        H  0.16719423  0.40719114  0.56866208     0.33100
H484        H  0.17381650  0.40181017  0.60596333     0.29800
H485        H  0.12958429  0.38668587  0.70866712     0.33100
H486        H  0.13507207  0.40525783  0.67791714     0.29800
H487        H  0.16740676  0.29065357  0.62443970     0.37700
H488        H  0.17368553  0.30960611  0.59422536     0.33200
C489        C  0.40919479  0.07285320  0.58503349    -0.20600
C490        C  0.41046390  0.07476394  0.61735890     0.35700
C491        C  0.39294251  0.09320763  0.63235820    -0.26500
C492        C  0.37409693  0.10953112  0.61582927     0.02100
C493        C  0.37238876  0.10749839  0.58370953     0.26900
C494        C  0.38979575  0.08899515  0.56861815    -0.25700
N495        N  0.42920348  0.05787336  0.63490607    -0.83100
H496        H  0.39405524  0.09500354  0.65707808     0.12700
C497        C  0.35761906  0.12960064  0.63250345     0.02100
N498        N  0.35372072  0.12472030  0.56655490    -0.81600
H499        H  0.38871254  0.08755025  0.54387155     0.17500
C500        C  0.37212040  0.15289459  0.63757111    -0.26500
C501        C  0.35785943  0.17227131  0.65427245     0.35600
C502        C  0.32846991  0.16821176  0.66580650    -0.20500
C503        C  0.31379910  0.14498198  0.66048339    -0.25700
C504        C  0.32836404  0.12537843  0.64427971     0.26900
H505        H  0.39469412  0.15586062  0.62856200     0.12700
N506        N  0.37291299  0.19615365  0.65927847    -0.83000
H507        H  0.29124385  0.14199765  0.66952330     0.17500
N508        N  0.31402027  0.10104741  0.64044708    -0.81600
H509        H  0.39447669  0.19598213  0.64944841     0.33200
H510        H  0.36062545  0.21018437  0.64779085     0.37700
H511        H  0.29282218  0.10089792  0.65106660     0.33100
H512        H  0.31019235  0.09833589  0.61704782     0.29800
H513        H  0.35546039  0.12100818  0.54307720     0.33100
H514        H  0.33123464  0.12124375  0.57261671     0.29800
H515        H  0.42039807  0.03953041  0.63242289     0.37700
H516        H  0.42795038  0.06221115  0.65825805     0.33200
C517        C  0.33855650  0.32990602  0.82718251    -0.20600
C518        C  0.32394712  0.35039370  0.84185275     0.35700
C519        C  0.34138279  0.36873455  0.85722827    -0.26500
C520        C  0.37295624  0.36678939  0.85833165     0.02100
C521        C  0.38755152  0.34616624  0.84402264     0.26900
C522        C  0.37018441  0.32813456  0.82808680    -0.25700
N523        N  0.29156208  0.35254417  0.84093660    -0.83100
H524        H  0.33037209  0.38453132  0.86858976     0.12700
C525        C  0.39030881  0.38595360  0.87573209     0.02100
N526        N  0.41969446  0.34295884  0.84700816    -0.81600
H527        H  0.38128099  0.31211498  0.81728213     0.17500
C528        C  0.39237192  0.38352235  0.90763383    -0.26500
C529        C  0.40819712  0.40154097  0.92519298     0.35600
C530        C  0.42238814  0.42222570  0.91038208    -0.20500
C531        C  0.42046905  0.42450719  0.87838664    -0.25700
C532        C  0.40407948  0.40677160  0.86090844     0.26900
H533        H  0.38150179  0.36753177  0.91881152     0.12700
N534        N  0.41014396  0.39880415  0.95791563    -0.83000
H535        H  0.43090360  0.44066197  0.86713950     0.17500
N536        N  0.40019334  0.41043592  0.82848090    -0.81600
H537        H  0.39832689  0.38265820  0.96518486     0.33200
H538        H  0.43285021  0.39577429  0.96341315     0.37700
H539        H  0.41093464  0.42714400  0.82135485     0.33100
H540        H  0.41095177  0.39554320  0.81706141     0.29800
H541        H  0.42669349  0.32629183  0.83606454     0.33100
H542        H  0.43035048  0.35794350  0.83560439     0.29800
H543        H  0.28531055  0.35536758  0.81808712     0.37700
H544        H  0.28439633  0.36859914  0.85304033     0.33200
C545        C  0.41679769  0.07715126  0.91366517    -0.20600
C546        C  0.38512037  0.07539633  0.91015068     0.35700
C547        C  0.36972836  0.09447415  0.89399575    -0.26500
C548        C  0.38537265  0.11512862  0.88140216     0.02100
C549        C  0.41695128  0.11699358  0.88492260     0.26900
C550        C  0.43245588  0.09774413  0.90074466    -0.25700
N551        N  0.36878995  0.05407386  0.92251866    -0.83100
H552        H  0.34543706  0.09326851  0.89112812     0.12700
C553        C  0.36817163  0.13493556  0.86507669     0.02100
N554        N  0.43293188  0.13876230  0.87323425    -0.81600
H555        H  0.45673429  0.09908200  0.90361415     0.17500
C556        C  0.35521558  0.15477077  0.88195205    -0.26500
C557        C  0.33856404  0.17397556  0.86732525     0.35600
C558        C  0.33496382  0.17318732  0.83517564    -0.20500
C559        C  0.34794472  0.15324128  0.81837055    -0.25700
C560        C  0.36419160  0.13385156  0.83309211     0.26900
H561        H  0.35830007  0.15529724  0.90658285     0.12700
N562        N  0.32592831  0.19450128  0.88488898    -0.83000
H563        H  0.34497343  0.15259151  0.79373162     0.17500
N564        N  0.37593100  0.11273811  0.81588959    -0.81600
H565        H  0.33040458  0.19204688  0.90822566     0.33200
H566        H  0.33698649  0.21120463  0.87825064     0.37700
H567        H  0.37038467  0.11452321  0.79270229     0.33100
H568        H  0.39949479  0.11334681  0.81715735     0.29800
H569        H  0.45594979  0.13749585  0.87840718     0.33100
H570        H  0.43128443  0.13852088  0.84935729     0.29800
H571        H  0.37604585  0.03780973  0.91088088     0.37700
H572        H  0.34565875  0.05582967  0.91813636     0.33200
C573        C  0.17228098  0.33401943  0.83137818    -0.20600
C574        C  0.14089574  0.33823904  0.82750707     0.35700
C575        C  0.12679248  0.35783777  0.84388566    -0.26500
C576        C  0.14323496  0.37374170  0.86347989     0.02100
C577        C  0.17458608  0.36991752  0.86703622     0.26900
C578        C  0.18875062  0.34994370  0.85112810    -0.25700
N579        N  0.12310115  0.32217509  0.80786238    -0.83100
H580        H  0.10262941  0.36060568  0.84160042     0.12700
C581        C  0.12671022  0.39354730  0.88093273     0.02500
N582        N  0.19183744  0.38629293  0.88678027    -0.81600
H583        H  0.21278622  0.34687144  0.85406502     0.17500
C584        C  0.12758192  0.39316493  0.91305700    -0.26500
C585        C  0.11011993  0.41014693  0.93048113     0.35600
C586        C  0.09124745  0.42777275  0.91537769    -0.20500
C587        C  0.09052773  0.42822826  0.88321366    -0.25700
C588        C  0.10838208  0.41153363  0.86582555     0.26900
H589        H  0.14132868  0.37907459  0.92457707     0.12700
N590        N  0.11096495  0.40911434  0.96339565    -0.83000
H591        H  0.07639982  0.44198100  0.87157846     0.17500
N592        N  0.10810135  0.41278365  0.83289991    -0.81600
H593        H  0.12622735  0.39526901  0.97082183     0.33200
H594        H  0.08959404  0.40336053  0.97097193     0.37700
H595        H  0.09340881  0.42701585  0.82536754     0.33100
H596        H  0.12977852  0.41807284  0.82573340     0.29800
H597        H  0.21456271  0.38086818  0.88696857     0.33100
H598        H  0.19108820  0.40460572  0.87750231     0.29800
H599        H  0.12881849  0.32669465  0.78525265     0.37700
H600        H  0.10009621  0.32633238  0.81006718     0.33200
C601        C  0.41475183  0.41939568  0.57880993    -0.20600
C602        C  0.38287885  0.41792998  0.57720011     0.35700
C603        C  0.36767870  0.39871200  0.59340750    -0.26500
C604        C  0.38362486  0.38108300  0.61112187     0.02100
C605        C  0.41547440  0.38188326  0.61185888     0.26900
C606        C  0.43070885  0.40133573  0.59603456    -0.25700
N607        N  0.36598463  0.43630593  0.55988553    -0.83100
H608        H  0.34321931  0.39768084  0.59268269     0.12700
C609        C  0.36644063  0.36182607  0.62857142     0.02100
N610        N  0.43221212  0.36245269  0.62761831    -0.81600
H611        H  0.45517410  0.40222183  0.59680149     0.17500
C612        C  0.35435144  0.34088262  0.61297381    -0.26500
C613        C  0.33743988  0.32233735  0.62861535     0.35600
C614        C  0.33312171  0.32468890  0.66053785    -0.20500
C615        C  0.34486491  0.34585307  0.67603930    -0.25700
C616        C  0.36080421  0.36488297  0.66017284     0.26900
H617        H  0.35817643  0.33904674  0.58853493     0.12700
N618        N  0.32509714  0.30095614  0.61233435    -0.83000
H619        H  0.34088298  0.34783479  0.70043646     0.17500
N620        N  0.36987115  0.38782092  0.67561258    -0.81600
H621        H  0.33001433  0.30227895  0.58894388     0.33200
H622        H  0.33593874  0.28461375  0.62035534     0.37700
H623        H  0.36288785  0.38745919  0.69851168     0.33100
H624        H  0.39343191  0.38862841  0.67591333     0.29800
H625        H  0.45545330  0.36542265  0.62504037     0.33100
H626        H  0.42770161  0.36392658  0.65102682     0.29800
H627        H  0.36879684  0.45395064  0.57054936     0.37700
H628        H  0.34286503  0.43220092  0.56069736     0.33200
N629        N  0.46778910  0.97187349  0.43997816    -0.06800
N630        N  0.46327731  0.95448920  0.41859698    -0.58900
N631        N  0.44434847  0.52889578  0.46235497    -0.06500
N632        N  0.42326150  0.54579484  0.45607565    -0.61100
N633        N  0.46630882  0.53011366  0.44205022    -0.06100
N634        N  0.46070834  0.54804627  0.42163911    -0.58900
N635        N  0.44631580  0.97072123  0.46083563    -0.05800
N636        N  0.42699493  0.95236894  0.45430619    -0.61400
C637        C  0.43794276  0.94230171  0.42804201     0.95400
C638        C  0.43380213  0.55765934  0.43074174     0.95100
N639        N  0.46129927  0.52733756  0.05712643    -0.07000
N640        N  0.45362701  0.54377483  0.07859380    -0.59500
N641        N  0.44301695  0.96944850  0.03296898    -0.05100
N642        N  0.42273140  0.95138180  0.03715460    -0.60800
N643        N  0.46308558  0.96922385  0.05517795    -0.07000
N644        N  0.45695473  0.95085429  0.07486357    -0.59800
N645        N  0.44136173  0.52751476  0.03477533    -0.04800
N646        N  0.41980659  0.54417594  0.04055110    -0.60900
Mn647      Mn  0.44303003  0.99915469  0.99768642     1.18400
C648        C  0.42774136  0.55419098  0.06796267     0.97400
C649        C  0.43173578  0.93988333  0.06329075     0.98100
N650        N  0.03766657  0.53147941  0.44550507    -0.07100
N651        N  0.04351281  0.54987021  0.42582886    -0.63400
N652        N  0.05934789  0.97325615  0.46552116    -0.05900
N653        N  0.08072655  0.95641659  0.45991021    -0.64000
N654        N  0.03949491  0.97352171  0.44309034    -0.06600
N655        N  0.04710917  0.95698977  0.42167799    -0.63600
N656        N  0.05757476  0.53160033  0.46789986    -0.05500
N657        N  0.07722065  0.55028073  0.46402222    -0.64300
Mn658      Mn  0.00286724  0.50175935  0.44180013     1.10700
C659        C  0.06802455  0.56159874  0.43777943     0.98700
C660        C  0.07270838  0.94627440  0.43261692     0.98700
N661        N  0.03417197  0.97054297  0.05845118    -0.06600
N662        N  0.03898179  0.95217774  0.07847920    -0.61900
N663        N  0.05505815  0.52935455  0.04016522    -0.05900
N664        N  0.07519514  0.54684654  0.04748566    -0.58700
N665        N  0.03287210  0.52899646  0.06027456    -0.07200
N666        N  0.03730011  0.54650632  0.08153839    -0.61500
N667        N  0.05599670  0.97122324  0.03797952    -0.06200
N668        N  0.07610542  0.95335214  0.04372232    -0.58700
Mn669      Mn  0.99784939  0.49906496  0.05860144     1.20200
Mn670      Mn  0.05782168  0.50133711  0.00291312     1.10100
Cl671      Cl  0.00040046  0.50033981  0.00024741    -0.86700
C672        C  0.06512506  0.94144057  0.06892816     0.95700
C673        C  0.06368091  0.55755950  0.07309553     0.95500
N674        N  0.28563440  0.77657201  0.19012839    -0.06800
N675        N  0.29089900  0.79380511  0.16877782    -0.58900
N676        N  0.30514249  0.71865614  0.21335008    -0.06500
N677        N  0.32464914  0.70028112  0.20767020    -0.61100
N678        N  0.28309589  0.71825838  0.19312709    -0.06100
N679        N  0.28694365  0.69943504  0.17349229    -0.58900
N680        N  0.30708826  0.77702268  0.21096933    -0.05800
N681        N  0.32723899  0.79475602  0.20443535    -0.61400
C682        C  0.31681374  0.80505174  0.17810249     0.95400
C683        C  0.31281564  0.68833319  0.18298900     0.95100
N684        N  0.28772645  0.72245516  0.30807998    -0.07000
N685        N  0.29371000  0.70541867  0.32944959    -0.59500
N686        N  0.30972197  0.77914032  0.28306578    -0.05100
N687        N  0.33060846  0.79679338  0.28694923    -0.60800
N688        N  0.28912921  0.78063288  0.30476977    -0.07000
N689        N  0.29539481  0.79947025  0.32369110    -0.59800
N690        N  0.30763822  0.72098706  0.28571920    -0.04800
N691        N  0.32740427  0.70280818  0.29127080    -0.60900
Mn692      Mn  0.30828621  0.74889838  0.24822725     1.18400
C693        C  0.31843268  0.69325994  0.31858135     0.97400
C694        C  0.32119312  0.80946706  0.31218120     0.98100
N695        N  0.21204112  0.72045879  0.19533632    -0.07100
N696        N  0.20529877  0.70213741  0.17586467    -0.63400
N697        N  0.19440734  0.77997377  0.21523408    -0.05900
N698        N  0.17541515  0.79888822  0.21041814    -0.64000
N699        N  0.21448352  0.77873000  0.19303202    -0.06600
N700        N  0.20939364  0.79662616  0.17248414    -0.63600
N701        N  0.19193298  0.72141750  0.21751191    -0.05500
N702        N  0.17114829  0.70365660  0.21366957    -0.64300
Mn703      Mn  0.24877636  0.74845767  0.19198940     1.10700
C704        C  0.17988521  0.69167080  0.18768770     0.98700
C705        C  0.18503552  0.80910944  0.18368641     0.98700
N706        N  0.21794867  0.78230795  0.30741942    -0.06600
N707        N  0.21360048  0.80148937  0.32650915    -0.61900
N708        N  0.19451546  0.72362796  0.28968960    -0.05900
N709        N  0.17408016  0.70620400  0.29643243    -0.58700
N710        N  0.21627298  0.72367114  0.31022019    -0.07200
N711        N  0.21118698  0.70607874  0.33122108    -0.61500
N712        N  0.19641018  0.78170063  0.28672760    -0.06200
N713        N  0.17701698  0.80026920  0.29128346    -0.58700
Mn714      Mn  0.25278579  0.75230432  0.30860868     1.20200
Mn715      Mn  0.19346187  0.75163464  0.25231531     1.10100
Cl716      Cl  0.25085097  0.75026865  0.25030419    -0.86700
C717        C  0.18790060  0.81254113  0.31610524     0.95700
C718        C  0.18488946  0.69522737  0.32221235     0.95500
C719        C  0.16250015  0.67128875  0.17235043    -0.20600
C720        C  0.14395310  0.65421328  0.18889164     0.35700
C721        C  0.12777888  0.63534504  0.17294806    -0.26500
C722        C  0.12970509  0.63341242  0.14097125     0.02100
C723        C  0.14756958  0.65082360  0.12437225     0.26900
C724        C  0.16413678  0.66935141  0.14029391    -0.25700
N725        N  0.14185827  0.65587621  0.22171387    -0.83100
H726        H  0.11371321  0.62200704  0.18544199     0.12700
C727        C  0.11257112  0.61329076  0.12495481     0.02100
N728        N  0.14784861  0.65026699  0.09140005    -0.81600
H729        H  0.17786001  0.68274905  0.12751145     0.17500
C730        C  0.08182486  0.61705648  0.11867933    -0.26500
C731        C  0.06516949  0.59888941  0.10209391     0.35600
C732        C  0.07982007  0.57685704  0.09132334    -0.20500
C733        C  0.11045880  0.57294688  0.09806887    -0.25700
C734        C  0.12687406  0.59072408  0.11538967     0.26900
H735        H  0.07096683  0.63435523  0.12642891     0.12700
N736        N  0.03370745  0.60295300  0.09558375    -0.83000
H737        H  0.12142398  0.55569908  0.09030108     0.17500
N738        N  0.15758037  0.58555634  0.12422674    -0.81600
H739        H  0.02635816  0.62004267  0.10526479     0.33200
H740        H  0.03148177  0.60490538  0.07184387     0.37700
H741        H  0.16435988  0.56775404  0.11611003     0.33100
H742        H  0.17165281  0.59890941  0.11371201     0.29800
H743        H  0.16131131  0.66495543  0.08271614     0.33100
H744        H  0.15793397  0.63332146  0.08435518     0.29800
H745        H  0.16316623  0.65162713  0.23068190     0.37700
H746        H  0.12698270  0.64211911  0.23024649     0.33200
C747        C  0.08473593  0.58200845  0.42180078    -0.20600
C748        C  0.09987040  0.60154314  0.43782615     0.35700
C749        C  0.11549479  0.62037258  0.42119858    -0.26500
C750        C  0.11664280  0.61967679  0.38907429     0.02100
C751        C  0.10252244  0.59962348  0.37315417     0.26900
C752        C  0.08613166  0.58132398  0.38967588    -0.25700
N753        N  0.09916932  0.60228703  0.47075599    -0.83100
H754        H  0.12694695  0.63559674  0.43325844     0.12700
C755        C  0.13391478  0.63941523  0.37243192     0.02100
N756        N  0.10624757  0.59713111  0.34052663    -0.81600
H757        H  0.07519214  0.56593093  0.37744234     0.17500
C758        C  0.16548749  0.63756477  0.37114277    -0.26500
C759        C  0.18285896  0.65578299  0.35536960     0.35600
C760        C  0.16810063  0.67583783  0.33994753    -0.20500
C761        C  0.13646096  0.67763574  0.34137429    -0.25700
C762        C  0.11921941  0.65992465  0.35800902     0.26900
H763        H  0.17656251  0.62183956  0.38256352     0.12700
N764        N  0.21520544  0.65343327  0.35411647    -0.83000
H765        H  0.12519336  0.69330608  0.33004204     0.17500
N766        N  0.08712001  0.66331591  0.36139713    -0.81600
H767        H  0.22215156  0.63667054  0.36486528     0.33200
H768        H  0.22438147  0.66830151  0.36699928     0.37700
H769        H  0.08009573  0.67986784  0.35023019     0.33100
H770        H  0.07613329  0.64826530  0.35050738     0.29800
H771        H  0.09554413  0.58066549  0.33260644     0.33100
H772        H  0.09541844  0.61235990  0.32989254     0.29800
H773        H  0.07677599  0.60535468  0.47746354     0.37700
H774        H  0.11170748  0.61772438  0.47892896     0.33200
C775        C  0.16847695  0.82914296  0.16698245    -0.20600
C776        C  0.16493782  0.82793553  0.13487751     0.35700
C777        C  0.14766897  0.84650049  0.11993592    -0.26500
C778        C  0.13409909  0.86640305  0.13625877     0.02100
C779        C  0.13783984  0.86781665  0.16833961     0.26900
C780        C  0.15473557  0.84894736  0.18345120    -0.25700
N781        N  0.17808760  0.80745105  0.11762968    -0.83100
H782        H  0.14441937  0.84529700  0.09536490     0.12700
C783        C  0.11633938  0.88563004  0.11909212     0.02100
N784        N  0.12470709  0.88846099  0.18531751    -0.81600
H785        H  0.15748884  0.84982785  0.20810764     0.17500
C786        C  0.08569043  0.88933800  0.12608349    -0.26500
C787        C  0.06804048  0.90678602  0.10944305     0.35600
C788        C  0.08161982  0.92120787  0.08571712    -0.20500
C789        C  0.11213568  0.91699491  0.07844703    -0.25700
C790        C  0.12960965  0.89944884  0.09487019     0.26900
H791        H  0.07540348  0.87821355  0.14422615     0.12700
N792        N  0.03643651  0.90960594  0.11635449    -0.83000
H793        H  0.12269728  0.92781936  0.06021999     0.17500
N794        N  0.16092929  0.89575663  0.08724590    -0.81600
H795        H  0.03020256  0.89784694  0.13463232     0.33200
H796        H  0.02428013  0.90324666  0.09729135     0.37700
H797        H  0.16717839  0.90717712  0.06866968     0.33100
H798        H  0.17379668  0.90179352  0.10597103     0.29800
H799        H  0.12958076  0.88669478  0.20866384     0.33100
H800        H  0.13505603  0.90525853  0.17790438     0.29800
H801        H  0.16738385  0.79064043  0.12446604     0.37700
H802        H  0.17364921  0.80958324  0.09424003     0.33200
C803        C  0.40918703  0.57285855  0.08502051    -0.20600
C804        C  0.41044445  0.57476802  0.11734630     0.35700
C805        C  0.39291734  0.59321085  0.13234036    -0.26500
C806        C  0.37407551  0.60953370  0.11580607     0.02100
C807        C  0.37237502  0.60749968  0.08368608     0.26900
C808        C  0.38979016  0.58899887  0.06859952    -0.25700
N809        N  0.42917722  0.55787630  0.13489919    -0.83100
H810        H  0.39402287  0.59500679  0.15706058     0.12700
C811        C  0.35759589  0.62960484  0.13247601     0.02100
N812        N  0.35370413  0.62471625  0.06652690    -0.81600
H813        H  0.38871378  0.58755371  0.04385262     0.17500
C814        C  0.37209224  0.65290315  0.13752965    -0.26500
C815        C  0.35783511  0.67227864  0.15423647     0.35600
C816        C  0.32845468  0.66821330  0.16579087    -0.20500
C817        C  0.31378702  0.64498036  0.16047877    -0.25700
C818        C  0.32834822  0.62537828  0.14426888     0.26900
H819        H  0.39466023  0.65587279  0.12850749     0.12700
N820        N  0.37288371  0.69616513  0.15922895    -0.83000
H821        H  0.29123768  0.64199246  0.16953220     0.17500
N822        N  0.31400833  0.60104468  0.14044577    -0.81600
H823        H  0.39444110  0.69599779  0.14938447     0.33200
H824        H  0.36058391  0.71019164  0.14774739     0.37700
H825        H  0.29281534  0.60089241  0.15107581     0.33100
H826        H  0.31016998  0.59833147  0.11704848     0.29800
H827        H  0.35544817  0.62100262  0.04304987     0.33100
H828        H  0.33121838  0.62123473  0.07258627     0.29800
H829        H  0.42037264  0.53953359  0.13241060     0.37700
H830        H  0.42791473  0.56221240  0.15825114     0.33200
C831        C  0.33855725  0.82990864  0.32717427    -0.20600
C832        C  0.32394714  0.85039793  0.34184058     0.35700
C833        C  0.34138224  0.86873971  0.35721536    -0.26500
C834        C  0.37295573  0.86679451  0.35831978     0.02100
C835        C  0.38755173  0.84617199  0.34401048     0.26900
C836        C  0.37018511  0.82813834  0.32807787    -0.25700
N837        N  0.29156223  0.85254893  0.34092125    -0.83100
H838        H  0.33037117  0.88453684  0.36857576     0.12700
C839        C  0.39030828  0.88595666  0.37572311     0.02100
N840        N  0.41969549  0.84296775  0.34699164    -0.81600
H841        H  0.38128225  0.81211829  0.31727482     0.17500
C842        C  0.39237627  0.88351901  0.40762386    -0.26500
C843        C  0.40820417  0.90153417  0.42518566     0.35600
C844        C  0.42239205  0.92222209  0.41037841    -0.20500
C845        C  0.42047032  0.92450867  0.37838366    -0.25700
C846        C  0.40407838  0.90677650  0.36090292     0.26900
H847        H  0.38150810  0.86752608  0.41879864     0.12700
N848        N  0.41015722  0.89879058  0.45790708    -0.83000
H849        H  0.43090394  0.94066522  0.36713932     0.17500
N850        N  0.40018929  0.91044620  0.32847662    -0.81600
H851        H  0.39834231  0.88264266  0.46517354     0.33200
H852        H  0.43286468  0.89576023  0.46339924     0.37700
H853        H  0.41093153  0.92715465  0.32135329     0.33100
H854        H  0.41094501  0.89555454  0.31705247     0.29800
H855        H  0.42669524  0.82630093  0.33604809     0.33100
H856        H  0.43034765  0.85795279  0.33558485     0.29800
H857        H  0.28531275  0.85536970  0.31807071     0.37700
H858        H  0.28439605  0.86860565  0.35302137     0.33200
C859        C  0.41681381  0.57715241  0.41365445    -0.20600
C860        C  0.38513508  0.57540219  0.41014981     0.35700
C861        C  0.36974255  0.59448205  0.39399967    -0.26500
C862        C  0.38538747  0.61513467  0.38140294     0.02100
C863        C  0.41696743  0.61699532  0.38491369     0.26900
C864        C  0.43247295  0.59774250  0.40072863    -0.25700
N865        N  0.36880331  0.55408312  0.42252456    -0.83100
H866        H  0.34545021  0.59327981  0.39113886     0.12700
C867        C  0.36818597  0.63494215  0.36508036     0.02100
N868        N  0.43294816  0.63876414  0.37322558    -0.81600
H869        H  0.45675245  0.59907688  0.40359106     0.17500
C870        C  0.35522851  0.65477579  0.38195751    -0.26500
C871        C  0.33857425  0.67397961  0.36733206     0.35600
C872        C  0.33497326  0.67319142  0.33518252    -0.20500
C873        C  0.34795554  0.65324697  0.31837627    -0.25700
C874        C  0.36420487  0.63385848  0.33309612     0.26900
H875        H  0.35831366  0.65530155  0.40658825     0.12700
N876        N  0.32593618  0.69450373  0.38489684    -0.83000
H877        H  0.34498325  0.65259734  0.29373746     0.17500
N878        N  0.37594492  0.61274602  0.31589222    -0.81600
H879        H  0.33041369  0.69204930  0.40823330     0.33200
H880        H  0.33699167  0.71120834  0.37825858     0.37700
H881        H  0.37039669  0.61453106  0.29270539     0.33100
H882        H  0.39950872  0.61335611  0.31715785     0.29800
H883        H  0.45596731  0.63749437  0.37839159     0.33100
H884        H  0.43129402  0.63852729  0.34934911     0.29800
H885        H  0.37605109  0.53781719  0.41088522     0.37700
H886        H  0.34567104  0.55584300  0.41815059     0.33200
C887        C  0.17228394  0.83401649  0.33137786    -0.20600
C888        C  0.14089846  0.83823322  0.32750290     0.35700
C889        C  0.12679048  0.85782949  0.34388114    -0.26500
C890        C  0.14322830  0.87373350  0.36347897     0.02100
C891        C  0.17457987  0.86991316  0.36703780     0.26900
C892        C  0.18874933  0.84994174  0.35112994    -0.25700
N893        N  0.12310816  0.82216841  0.30785511    -0.83100
H894        H  0.10262728  0.86059507  0.34159325     0.12700
C895        C  0.12669860  0.89353518  0.38093306     0.02500
N896        N  0.19182654  0.88628993  0.38678434    -0.81600
H897        H  0.21278512  0.84687188  0.35406907     0.17500
C898        C  0.12756550  0.89314815  0.41305741    -0.26500
C899        C  0.11010358  0.91012962  0.43048243     0.35600
C900        C  0.09123866  0.92776139  0.41537983    -0.20500
C901        C  0.09051956  0.92821849  0.38321570    -0.25700
C902        C  0.10837170  0.91152284  0.36582667     0.26900
H903        H  0.14130923  0.87905516  0.42457654     0.12700
N904        N  0.11094073  0.90909067  0.46339682    -0.83000
H905        H  0.07639462  0.94197377  0.37158115     0.17500
N906        N  0.10809050  0.91277363  0.33290104    -0.81600
H907        H  0.12619666  0.89524017  0.47082268     0.33200
H908        H  0.08956614  0.90334042  0.47096635     0.37700
H909        H  0.09339816  0.92700619  0.32536936     0.33100
H910        H  0.12976771  0.91806244  0.32573419     0.29800
H911        H  0.21455278  0.88086810  0.38697419     0.33100
H912        H  0.19107480  0.90460296  0.37750733     0.29800
H913        H  0.12882669  0.82669002  0.28524625     0.37700
H914        H  0.10010233  0.82632279  0.31005818     0.33200
C915        C  0.41475729  0.91939592  0.07882172    -0.20600
C916        C  0.38288135  0.91795573  0.07724887     0.35700
C917        C  0.36767953  0.89873903  0.09345634    -0.26500
C918        C  0.38362779  0.88108727  0.11113574     0.02100
C919        C  0.41547895  0.88186495  0.11183861     0.26900
C920        C  0.43071568  0.90131568  0.09601348    -0.25700
N921        N  0.36598757  0.93635670  0.05997246    -0.83100
H922        H  0.34321831  0.89772608  0.09275871     0.12700
C923        C  0.36644409  0.86182958  0.12858375     0.02100
N924        N  0.43221408  0.86241411  0.12756441    -0.81600
H925        H  0.45518265  0.90218457  0.09675299     0.17500
C926        C  0.35432399  0.84090300  0.11297818    -0.26500
C927        C  0.33741416  0.82235637  0.12861882     0.35600
C928        C  0.33312920  0.82468916  0.16054807    -0.20500
C929        C  0.34490340  0.84583703  0.17605787    -0.25700
C930        C  0.36084110  0.86486887  0.16019353     0.26900
H931        H  0.35812384  0.83908121  0.08853374     0.12700
N932        N  0.32503974  0.80099255  0.11232928    -0.83000
H933        H  0.34094677  0.84780519  0.20046084     0.17500
N934        N  0.36994059  0.88779188  0.17564583    -0.81600
H935        H  0.32993390  0.80232894  0.08893495     0.33200
H936        H  0.33587797  0.78463926  0.12032250     0.37700
H937        H  0.36298013  0.88741871  0.19855180     0.33100
H938        H  0.39350228  0.88858675  0.17592269     0.29800
H939        H  0.45545544  0.86536944  0.12496375     0.33100
H940        H  0.42772948  0.86387865  0.15097888     0.29800
H941        H  0.36883511  0.95399266  0.07064771     0.37700
H942        H  0.34286400  0.93227115  0.06081122     0.33200
N943        N  0.46778817  0.97187234  0.93998043    -0.06800
N944        N  0.46327570  0.95448770  0.91859985    -0.58900
N945        N  0.44434663  0.52889456  0.96235744    -0.06500
N946        N  0.42325973  0.54579420  0.95607998    -0.61100
N947        N  0.46630629  0.53011272  0.94205189    -0.06100
N948        N  0.46070530  0.54804631  0.92164208    -0.58900
N949        N  0.44631563  0.97072039  0.96083863    -0.05800
N950        N  0.42699458  0.95236807  0.95431047    -0.61400
C951        C  0.43794147  0.94230049  0.92804626     0.95400
C952        C  0.43379960  0.55765953  0.93074636     0.95100
N953        N  0.46130052  0.52733679  0.55712530    -0.07000
N954        N  0.45363041  0.54377451  0.57859276    -0.59500
N955        N  0.44301487  0.96944965  0.53296689    -0.05100
N956        N  0.42272746  0.95138444  0.53715306    -0.60800
N957        N  0.46308371  0.96922385  0.55517571    -0.07000
N958        N  0.45695079  0.95085519  0.57486183    -0.59800
N959        N  0.44136309  0.52751580  0.53477407    -0.04800
N960        N  0.41980989  0.54417879  0.54055021    -0.60900
Mn961      Mn  0.44303007  0.99915579  0.49768412     1.18400
C962        C  0.42774605  0.55419287  0.56796203     0.97400
C963        C  0.43173056  0.93988579  0.56328958     0.98100
N964        N  0.03766413  0.53147783  0.94550283    -0.07100
N965        N  0.04350876  0.54986820  0.92582564    -0.63400
N966        N  0.05934723  0.97325550  0.96552139    -0.05900
N967        N  0.08072732  0.95641727  0.95991047    -0.64000
N968        N  0.03949457  0.97352058  0.94309026    -0.06600
N969        N  0.04711075  0.95698945  0.92167756    -0.63600
N970        N  0.05757337  0.53159945  0.96789665    -0.05500
N971        N  0.07721858  0.55028013  0.96401722    -0.64300
Mn972      Mn  0.00286537  0.50175794  0.94180034     1.10700
C973        C  0.06802078  0.56159734  0.93777440     0.98700
C974        C  0.07271066  0.94627516  0.93261682     0.98700
N975        N  0.03417253  0.97054132  0.55845021    -0.06600
N976        N  0.03898428  0.95217660  0.57847856    -0.61900
N977        N  0.05505797  0.52935428  0.54016784    -0.05900
N978        N  0.07519366  0.54684721  0.54748907    -0.58700
N979        N  0.03287134  0.52899535  0.56027646    -0.07200
N980        N  0.03729738  0.54650564  0.58154033    -0.61500
N981        N  0.05599760  0.97122290  0.53797896    -0.06200
N982        N  0.07610819  0.95335337  0.54372213    -0.58700
Mn983      Mn  0.99784906  0.49906355  0.55860082     1.20200
Mn984      Mn  0.05782236  0.50133725  0.50291443     1.10100
Cl985      Cl  0.00040101  0.50033995  0.50024701    -0.86700
C986        C  0.06512892  0.94144119  0.56892788     0.95700
C987        C  0.06367759  0.55756011  0.57309822     0.95500
N988        N  0.28563268  0.77656971  0.69012496    -0.06800
N989        N  0.29089775  0.79380100  0.66877216    -0.58900
N990        N  0.30514389  0.71865649  0.71335129    -0.06500
N991        N  0.32465199  0.70028238  0.70767311    -0.61100
N992        N  0.28309739  0.71825638  0.69312835    -0.06100
N993        N  0.28694678  0.69943220  0.67349503    -0.58900
N994        N  0.30708579  0.77702267  0.71096674    -0.05800
N995        N  0.32723607  0.79475593  0.70443138    -0.61400
C996        C  0.31681166  0.80504911  0.67809684     0.95400
C997        C  0.31281982  0.68833255  0.68299274     0.95100
N998        N  0.28772846  0.72245645  0.80807968    -0.07000
N999        N  0.29371132  0.70541913  0.82944844    -0.59500
N1000       N  0.30972175  0.77914229  0.78306427    -0.05100
N1001       N  0.33060911  0.79679448  0.78694953    -0.60800
N1002       N  0.28912903  0.78063409  0.80476836    -0.07000
N1003       N  0.29539529  0.79947006  0.82369135    -0.59800
N1004       N  0.30764034  0.72098867  0.78571899    -0.04800
N1005       N  0.32740571  0.70280893  0.79126974    -0.60900
Mn1006     Mn  0.30828629  0.74889971  0.74822640     1.18400
C1007       C  0.31843361  0.69326003  0.81857988     0.97400
C1008       C  0.32119397  0.80946689  0.81218261     0.98100
N1009       N  0.21204367  0.72045273  0.69533965    -0.07100
N1010       N  0.20530701  0.70212615  0.67587312    -0.63400
N1011       N  0.19440555  0.77996927  0.71523254    -0.05900
N1012       N  0.17541417  0.79888443  0.71041678    -0.64000
N1013       N  0.21448132  0.77872479  0.69303015    -0.06600
N1014       N  0.20939200  0.79662106  0.67248230    -0.63600
N1015       N  0.19193546  0.72141132  0.71751521    -0.05500
N1016       N  0.17115642  0.70364476  0.71367804    -0.64300
Mn1017     Mn  0.24877601  0.74845386  0.69198901     1.10700
C1018       C  0.17989706  0.69165595  0.68769929     0.98700
C1019       C  0.18503454  0.80910515  0.68368468     0.98700
N1020       N  0.21794873  0.78230768  0.80741823    -0.06600
N1021       N  0.21360128  0.80148961  0.82650729    -0.61900
N1022       N  0.19451678  0.72362724  0.78969205    -0.05900
N1023       N  0.17408049  0.70620476  0.79643662    -0.58700
N1024       N  0.21627443  0.72367089  0.81022247    -0.07200
N1025       N  0.21118730  0.70608010  0.83122530    -0.61500
N1026       N  0.19640946  0.78169964  0.78672716    -0.06200
N1027       N  0.17701618  0.80026827  0.79128333    -0.58700
Mn1028     Mn  0.25278670  0.75230476  0.80860831     1.20200
Mn1029     Mn  0.19346186  0.75163173  0.75231598     1.10100
Cl1030     Cl  0.25085111  0.75026770  0.75030398    -0.86700
C1031       C  0.18790095  0.81254102  0.81610422     0.95700
C1032       C  0.18488890  0.69522941  0.82221753     0.95500
C1033       C  0.16251662  0.67126914  0.67236579    -0.20600
C1034       C  0.14398026  0.65418833  0.68891115     0.35700
C1035       C  0.12779855  0.63532299  0.67296979    -0.26500
C1036       C  0.12971203  0.63339567  0.64099163     0.02100
C1037       C  0.14757704  0.65080468  0.62439027     0.26900
C1038       C  0.16414627  0.66933295  0.64030889    -0.25700
N1039       N  0.14190549  0.65584235  0.72173530    -0.83100
H1040       H  0.11373773  0.62198305  0.68546629     0.12700
C1041       C  0.11257150  0.61327785  0.62497516     0.02100
N1042       N  0.14785846  0.65024229  0.59141835    -0.81600
H1043       H  0.17786617  0.68273136  0.62752393     0.17500
C1044       C  0.08183315  0.61705958  0.61867349    -0.26500
C1045       C  0.06517658  0.59889819  0.60207972     0.35600
C1046       C  0.07981772  0.57685430  0.59133022    -0.20500
C1047       C  0.11044840  0.57292944  0.59809994    -0.25700
C1048       C  0.12686496  0.59070279  0.61542512     0.26900
H1049       H  0.07098321  0.63436671  0.62640749     0.12700
N1050       N  0.03372406  0.60297933  0.59553855    -0.83000
H1051       H  0.12140647  0.55567445  0.59034507     0.17500
N1052       N  0.15756499  0.58552594  0.62427617    -0.81600
H1053       H  0.02638121  0.62007644  0.60520554     0.33200
H1054       H  0.03152177  0.60492647  0.57179577     0.37700
H1055       H  0.16433889  0.56771984  0.61616692     0.33100
H1056       H  0.17164712  0.59887264  0.61376240     0.29800
H1057       H  0.16132462  0.66492742  0.58273178     0.33100
H1058       H  0.15794216  0.63329394  0.58438019     0.29800
H1059       H  0.16322022  0.65159445  0.73068777     0.37700
H1060       H  0.12703887  0.64208018  0.73027202     0.33200
C1061       C  0.08472861  0.58200896  0.92179552    -0.20600
C1062       C  0.09986246  0.60154371  0.93782117     0.35700
C1063       C  0.11548397  0.62037487  0.92119401    -0.26500
C1064       C  0.11662981  0.61968109  0.88906966     0.02100
C1065       C  0.10250825  0.59962876  0.87314866     0.26900
C1066       C  0.08612051  0.58132713  0.88967026    -0.25700
N1067       N  0.09916411  0.60228566  0.97075111    -0.83100
H1068       H  0.12693667  0.63559849  0.93325436     0.12700
C1069       C  0.13390460  0.63941886  0.87242923     0.02100
N1070       N  0.10622957  0.59713925  0.84052036    -0.81600
H1071       H  0.07518065  0.56593447  0.87743631     0.17500
C1072       C  0.16547728  0.63756595  0.87114242    -0.26500
C1073       C  0.18285227  0.65578453  0.85537381     0.35600
C1074       C  0.16809751  0.67584202  0.83995352    -0.20500
C1075       C  0.13645801  0.67764312  0.84137926    -0.25700
C1076       C  0.11921295  0.65993171  0.85800964     0.26900
H1077       H  0.17654952  0.62183859  0.88256165     0.12700
N1078       N  0.21519859  0.65343254  0.85412334    -0.83000
H1079       H  0.12519322  0.69331578  0.83004879     0.17500
N1080       N  0.08711392  0.66332599  0.86139672    -0.81600
H1081       H  0.22214208  0.63666898  0.86487199     0.33200
H1082       H  0.22437499  0.66829983  0.86700750     0.37700
H1083       H  0.08009285  0.67988043  0.85023315     0.33100
H1084       H  0.07612557  0.64827830  0.85050282     0.29800
H1085       H  0.09552617  0.58067379  0.83259952     0.33100
H1086       H  0.09539800  0.61236837  0.82988962     0.29800
H1087       H  0.07677108  0.60535146  0.97746082     0.37700
H1088       H  0.11170150  0.61772339  0.97892432     0.33200
C1089       C  0.16847850  0.82914081  0.66698153    -0.20600
C1090       C  0.16494262  0.82793637  0.63487601     0.35700
C1091       C  0.14767745  0.84650393  0.61993470    -0.26500
C1092       C  0.13410812  0.86640629  0.63625832     0.02100
C1093       C  0.13784655  0.86781745  0.66833964     0.26900
C1094       C  0.15473814  0.84894532  0.68345100    -0.25700
N1095       N  0.17809171  0.80745218  0.61762716    -0.83100
H1096       H  0.14442962  0.84530223  0.59536331     0.12700
C1097       C  0.11634834  0.88563385  0.61909246     0.02100
N1098       N  0.12471581  0.88846229  0.68531826    -0.81600
H1099       H  0.15748927  0.84982384  0.70810778     0.17500
C1100       C  0.08569910  0.88934033  0.62608354    -0.26500
C1101       C  0.06804776  0.90678696  0.60944261     0.35600
C1102       C  0.08162604  0.92120985  0.58571712    -0.20500
C1103       C  0.11214249  0.91699872  0.57844738    -0.25700
C1104       C  0.12961765  0.89945312  0.59487031     0.26900
H1105       H  0.07541272  0.87821513  0.64422587     0.12700
N1106       N  0.03644315  0.90960400  0.61635263    -0.83000
H1107       H  0.12270329  0.92782375  0.56022036     0.17500
N1108       N  0.16093716  0.89576139  0.58724506    -0.81600
H1109       H  0.03020986  0.89784437  0.63463014     0.33200
H1110       H  0.02428850  0.90324363  0.59728890     0.37700
H1111       H  0.16718540  0.90718193  0.56866861     0.33100
H1112       H  0.17380506  0.90179842  0.60596980     0.29800
H1113       H  0.12958744  0.88669415  0.70866482     0.33100
H1114       H  0.13506813  0.90525904  0.67790737     0.29800
H1115       H  0.16738503  0.79064193  0.62446024     0.37700
H1116       H  0.17365625  0.80958676  0.59423728     0.33200
C1117       C  0.40919414  0.57286106  0.58502150    -0.20600
C1118       C  0.41045233  0.57476832  0.61734752     0.35700
C1119       C  0.39292672  0.59321087  0.63234376    -0.26500
C1120       C  0.37408612  0.60953598  0.61581141     0.02100
C1121       C  0.37238661  0.60750556  0.58369099     0.26900
C1122       C  0.38979957  0.58900449  0.56860228    -0.25700
N1123       N  0.42918434  0.55787462  0.63489849    -0.83100
H1124       H  0.39403218  0.59500458  0.65706421     0.12700
C1125       C  0.35760644  0.62960555  0.63248383     0.02100
N1126       N  0.35371972  0.62472645  0.56653359    -0.81600
H1127       H  0.38872349  0.58756159  0.54385517     0.17500
C1128       C  0.37210621  0.65290059  0.63754901    -0.26500
C1129       C  0.35784703  0.67227555  0.65425477     0.35600
C1130       C  0.32846124  0.66821289  0.66579664    -0.20500
C1131       C  0.31379100  0.64498272  0.66047455    -0.25700
C1132       C  0.32835405  0.62538105  0.64426577     0.26900
H1133       H  0.39467795  0.65586841  0.62853565     0.12700
N1134       N  0.37289870  0.69615917  0.65925782    -0.83000
H1135       H  0.29123796  0.64199655  0.66951929     0.17500
N1136       N  0.31401114  0.60104969  0.64043340    -0.81600
H1137       H  0.39445984  0.69598997  0.64942191     0.33200
H1138       H  0.36060626  0.71018905  0.64777409     0.37700
H1139       H  0.29281485  0.60089858  0.65105670     0.33100
H1140       H  0.31017944  0.59833987  0.61703447     0.29800
H1141       H  0.35546481  0.62101557  0.54305602     0.33100
H1142       H  0.33123292  0.62124701  0.57259057     0.29800
H1143       H  0.42037830  0.53953251  0.63240875     0.37700
H1144       H  0.42792302  0.56220951  0.65825083     0.33200
C1145       C  0.33855817  0.82990694  0.82717854    -0.20600
C1146       C  0.32394740  0.85039524  0.84184623     0.35700
C1147       C  0.34138160  0.86873549  0.85722445    -0.26500
C1148       C  0.37295484  0.86678981  0.85833084     0.02100
C1149       C  0.38755161  0.84616799  0.84402097     0.26900
C1150       C  0.37018592  0.82813575  0.82808488    -0.25700
N1151       N  0.29156264  0.85254701  0.84092436    -0.83100
H1152       H  0.33037005  0.88453225  0.86858512     0.12700
C1153       C  0.39030670  0.88595289  0.87573298     0.02100
N1154       N  0.41969513  0.84296339  0.84700440    -0.81600
H1155       H  0.38128349  0.81211628  0.81728105     0.17500
C1156       C  0.39237581  0.88351650  0.90763376    -0.26500
C1157       C  0.40820342  0.90153294  0.92519381     0.35600
C1158       C  0.42239027  0.92222037  0.91038457    -0.20500
C1159       C  0.42046661  0.92450609  0.87838995    -0.25700
C1160       C  0.40407468  0.90677282  0.86091107     0.26900
H1161       H  0.38150873  0.86752368  0.91880986     0.12700
N1162       N  0.41015689  0.89879140  0.95791547    -0.83000
H1163       H  0.43089885  0.94066265  0.86714430     0.17500
N1164       N  0.40018380  0.91044111  0.82848477    -0.81600
H1165       H  0.39834244  0.88264375  0.96518353     0.33200
H1166       H  0.43286448  0.89576189  0.96340774     0.37700
H1167       H  0.41092455  0.92714981  0.82135995     0.33100
H1168       H  0.41094000  0.89554944  0.81706103     0.29800
H1169       H  0.42669564  0.82629751  0.83605936     0.33100
H1170       H  0.43034831  0.85794949  0.83560048     0.29800
H1171       H  0.28531525  0.85536998  0.81807363     0.37700
H1172       H  0.28439586  0.86860275  0.85302596     0.33200
C1173       C  0.41681011  0.57715243  0.91365976    -0.20600
C1174       C  0.38513194  0.57539930  0.91015157     0.35700
C1175       C  0.36973848  0.59447803  0.89400016    -0.26500
C1176       C  0.38538207  0.61513207  0.88140499     0.02100
C1177       C  0.41696146  0.61699539  0.88491908     0.26900
C1178       C  0.43246777  0.59774428  0.90073628    -0.25700
N1179       N  0.36880189  0.55407813  0.92252340    -0.83100
H1180       H  0.34544659  0.59327363  0.89113682     0.12700
C1181       C  0.36818013  0.63493884  0.86508124     0.02100
N1182       N  0.43294090  0.63876474  0.87323066    -0.81600
H1183       H  0.45674681  0.59908081  0.90360124     0.17500
C1184       C  0.35522429  0.65477380  0.88195726    -0.26500
C1185       C  0.33857279  0.67397871  0.86733074     0.35600
C1186       C  0.33497284  0.67319050  0.83518107    -0.20500
C1187       C  0.34795336  0.65324462  0.81837573    -0.25700
C1188       C  0.36419990  0.63385489  0.83309685     0.26900
H1189       H  0.35830901  0.65530000  0.90658804     0.12700
N1190       N  0.32593666  0.69450419  0.88489463    -0.83000
H1191       H  0.34498183  0.65259486  0.79373684     0.17500
N1192       N  0.37593852  0.61274127  0.81589406    -0.81600
H1193       H  0.33041297  0.69204971  0.90823131     0.33200
H1194       H  0.33699450  0.71120772  0.87825643     0.37700
H1195       H  0.37039176  0.61452642  0.79270688     0.33100
H1196       H  0.39950232  0.61334954  0.81716116     0.29800
H1197       H  0.45595977  0.63749695  0.87839876     0.33100
H1198       H  0.43128876  0.63852616  0.84935405     0.29800
H1199       H  0.37605358  0.53781334  0.91088429     0.37700
H1200       H  0.34566989  0.55583563  0.91814643     0.33200
C1201       C  0.17228582  0.83401727  0.83137700    -0.20600
C1202       C  0.14090055  0.83823544  0.82750309     0.35700
C1203       C  0.12679430  0.85783230  0.84388198    -0.26500
C1204       C  0.14323363  0.87373558  0.86347951     0.02100
C1205       C  0.17458497  0.86991357  0.86703764     0.26900
C1206       C  0.18875270  0.84994169  0.85112892    -0.25700
N1207       N  0.12310875  0.82217161  0.80785559    -0.83100
H1208       H  0.10263123  0.86059896  0.84159477     0.12700
C1209       C  0.12670545  0.89353832  0.88093359     0.02500
N1210       N  0.19183322  0.88628900  0.88678440    -0.81600
H1211       H  0.21278835  0.84687072  0.85406744     0.17500
C1212       C  0.12757281  0.89315197  0.91305795    -0.26500
C1213       C  0.11011020  0.91013318  0.93048276     0.35600
C1214       C  0.09124340  0.92776355  0.91537995    -0.20500
C1215       C  0.09052509  0.92822080  0.88321583    -0.25700
C1216       C  0.10837854  0.91152591  0.86582708     0.26900
H1217       H  0.14131711  0.87905950  0.92457729     0.12700
N1218       N  0.11094857  0.90909526  0.96339718    -0.83000
H1219       H  0.07639954  0.94197552  0.87158108     0.17500
N1220       N  0.10809847  0.91277723  0.83290148    -0.81600
H1221       H  0.12620614  0.89524605  0.97082313     0.33200
H1222       H  0.08957482  0.90334380  0.97096774     0.37700
H1223       H  0.09340618  0.92700975  0.82536961     0.33100
H1224       H  0.12977585  0.91806645  0.82573559     0.29800
H1225       H  0.21455903  0.88086591  0.88697376     0.33100
H1226       H  0.19108275  0.90460229  0.87750797     0.29800
H1227       H  0.12882754  0.82669272  0.78524668     0.37700
H1228       H  0.10010327  0.82632741  0.81005881     0.33200
C1229       C  0.41475310  0.91939661  0.57881913    -0.20600
C1230       C  0.38287847  0.91794469  0.57723103     0.35700
C1231       C  0.36767857  0.89872636  0.59343774    -0.26500
C1232       C  0.38362715  0.88108425  0.61113092     0.02100
C1233       C  0.41547758  0.88187292  0.61184841     0.26900
C1234       C  0.43071201  0.90132540  0.59602435    -0.25700
N1235       N  0.36598342  0.93633504  0.55993949    -0.83100
H1236       H  0.34321816  0.89770475  0.59272875     0.12700
C1237       C  0.36644441  0.86182567  0.62857865     0.02100
N1238       N  0.43221525  0.86243085  0.62758724    -0.81600
H1239       H  0.45517822  0.90220248  0.59677528     0.17500
C1240       C  0.35433620  0.84089306  0.61297511    -0.26500
C1241       C  0.33742520  0.82234669  0.62861515     0.35600
C1242       C  0.33312745  0.82468587  0.66054187    -0.20500
C1243       C  0.34489029  0.84583920  0.67604949    -0.25700
C1244       C  0.36082850  0.86487078  0.66018533     0.26900
H1245       H  0.35814566  0.83906666  0.58853270     0.12700
N1246       N  0.32506223  0.80097701  0.61232789    -0.83000
H1247       H  0.34092399  0.84781183  0.70045034     0.17500
N1248       N  0.36991440  0.88779939  0.67563378    -0.81600
H1249       H  0.32996535  0.80230881  0.58893512     0.33200
H1250       H  0.33590113  0.78462736  0.62033107     0.37700
H1251       H  0.36294469  0.88742995  0.69853698     0.33100
H1252       H  0.39347563  0.88859986  0.67592043     0.29800
H1253       H  0.45545636  0.86539360  0.62499624     0.33100
H1254       H  0.42771987  0.86389809  0.65099927     0.29800
H1255       H  0.36881556  0.95397453  0.57061048     0.37700
H1256       H  0.34286170  0.93224059  0.56076726     0.33200
N1257       N  0.96778866  0.47187389  0.43997797    -0.06800
N1258       N  0.96327670  0.45448960  0.41859680    -0.58900
N1259       N  0.94434822  0.02889602  0.46235521    -0.06500
N1260       N  0.92326140  0.04579518  0.45607569    -0.61100
N1261       N  0.96630868  0.03011376  0.44205055    -0.06100
N1262       N  0.96070847  0.04804634  0.42163936    -0.58900
N1263       N  0.94631551  0.47072158  0.46083559    -0.05800
N1264       N  0.92699462  0.45236928  0.45430631    -0.61400
C1265       C  0.93794222  0.44230208  0.42804204     0.95400
C1266       C  0.93380230  0.05765954  0.43074180     0.95100
N1267       N  0.96129874  0.02733701  0.05712719    -0.07000
N1268       N  0.95362622  0.04377359  0.07859519    -0.59500
N1269       N  0.94301737  0.46944780  0.03296891    -0.05100
N1270       N  0.92273265  0.45138041  0.03715441    -0.60800
N1271       N  0.96308627  0.46922335  0.05517761    -0.07000
N1272       N  0.95695648  0.45085334  0.07486291    -0.59800
N1273       N  0.94136116  0.02751441  0.03477614    -0.04800
N1274       N  0.91980567  0.04417509  0.04055259    -0.60900
Mn1275     Mn  0.94302974  0.49915445  0.99768663     1.18400
C1276       C  0.92774034  0.05418955  0.06796449     0.97400
C1277       C  0.93173785  0.43988181  0.06329025     0.98100
N1278       N  0.53766637  0.03147934  0.44550501    -0.07100
N1279       N  0.54351229  0.04987014  0.42582872    -0.63400
N1280       N  0.55934851  0.47325615  0.46552055    -0.05900
N1281       N  0.58072753  0.45641701  0.45990905    -0.64000
N1282       N  0.53949539  0.47352173  0.44308984    -0.06600
N1283       N  0.54710989  0.45699023  0.42167709    -0.63600
N1284       N  0.55757449  0.03160058  0.46789986    -0.05500
N1285       N  0.57722000  0.05028126  0.46402221    -0.64300
Mn1286     Mn  0.50286739  0.00175911  0.44180020     1.10700
C1287       C  0.56802373  0.06159903  0.43777934     0.98700
C1288       C  0.57270941  0.44627510  0.43261557     0.98700
N1289       N  0.53417280  0.47054307  0.05845090    -0.06600
N1290       N  0.53898289  0.45217783  0.07847889    -0.61900
N1291       N  0.55505826  0.02935487  0.04016593    -0.05900
N1292       N  0.57519514  0.04684698  0.04748634    -0.58700
N1293       N  0.53287209  0.02899685  0.06027514    -0.07200
N1294       N  0.53729989  0.04650694  0.08153879    -0.61500
N1295       N  0.55599746  0.47122340  0.03797914    -0.06200
N1296       N  0.57610632  0.45335236  0.04372182    -0.58700
Mn1297     Mn  0.49784926  0.99906528  0.05860182     1.20200
Mn1298     Mn  0.55782198  0.00133733  0.00291386     1.10100
Cl1299     Cl  0.50040073  0.00033995  0.00024777    -0.86700
C1300       C  0.56512621  0.44144073  0.06892771     0.95700
C1301       C  0.56368068  0.05756017  0.07309596     0.95500
N1302       N  0.78563610  0.27657142  0.19012843    -0.06800
N1303       N  0.79090175  0.29380405  0.16877751    -0.58900
N1304       N  0.80514361  0.21865582  0.21335090    -0.06500
N1305       N  0.82465039  0.20028087  0.20767122    -0.61100
N1306       N  0.78309718  0.21825799  0.19312772    -0.06100
N1307       N  0.78694512  0.19943464  0.17349303    -0.58900
N1308       N  0.80708955  0.27702205  0.21096982    -0.05800
N1309       N  0.82724090  0.29475487  0.20443596    -0.61400
C1310       C  0.81681657  0.30505034  0.17810266     0.95400
C1311       C  0.81281708  0.18833292  0.18298995     0.95100
N1312       N  0.78772701  0.22245546  0.30808072    -0.07000
N1313       N  0.79371091  0.20541929  0.32945062    -0.59500
N1314       N  0.80972249  0.27914027  0.28306596    -0.05100
N1315       N  0.83060910  0.29679321  0.28694942    -0.60800
N1316       N  0.78912955  0.28063303  0.30476977    -0.07000
N1317       N  0.79539517  0.29947044  0.32369100    -0.59800
N1318       N  0.80763876  0.22098730  0.28571994    -0.04800
N1319       N  0.82740512  0.20280875  0.29127176    -0.60900
Mn1320     Mn  0.80828695  0.24889818  0.24822784     1.18400
C1321       C  0.81843377  0.19326074  0.31858245     0.97400
C1322       C  0.82119364  0.30946705  0.31218122     0.98100
N1323       N  0.71204257  0.22045808  0.19533667    -0.07100
N1324       N  0.70530137  0.20213565  0.17586604    -0.63400
N1325       N  0.69440838  0.27997338  0.21523344    -0.05900
N1326       N  0.67541640  0.29888799  0.21041740    -0.64000
N1327       N  0.71448471  0.27872954  0.19303152    -0.06600
N1328       N  0.70939509  0.29662573  0.17248360    -0.63600
N1329       N  0.69193432  0.22141676  0.21751217    -0.05500
N1330       N  0.67115075  0.20365475  0.21367084    -0.64300
Mn1331     Mn  0.74877768  0.24845720  0.19198947     1.10700
C1332       C  0.67988848  0.19166834  0.18768965     0.98700
C1333       C  0.68503700  0.30910918  0.18368573     0.98700
N1334       N  0.71794887  0.28230817  0.30741895    -0.06600
N1335       N  0.71360063  0.30148988  0.32650825    -0.61900
N1336       N  0.69451588  0.22362799  0.28968977    -0.05900
N1337       N  0.67408047  0.20620414  0.29643274    -0.58700
N1338       N  0.71627329  0.22367128  0.31022046    -0.07200
N1339       N  0.71118709  0.20607907  0.33122156    -0.61500
N1340       N  0.69641055  0.28170067  0.28672695    -0.06200
N1341       N  0.67701741  0.30026938  0.29128226    -0.58700
Mn1342     Mn  0.75278611  0.25230453  0.30860884     1.20200
Mn1343     Mn  0.69346261  0.25163438  0.25231503     1.10100
Cl1344     Cl  0.75085174  0.25026850  0.25030432    -0.86700
C1345       C  0.68790088  0.31254160  0.31610390     0.95700
C1346       C  0.68488952  0.19522770  0.32221292     0.95500
C1347       C  0.66250431  0.17128540  0.17235310    -0.20600
C1348       C  0.64396014  0.15420827  0.18889514     0.35700
C1349       C  0.62778453  0.13534060  0.17295189    -0.26500
C1350       C  0.62970747  0.13340968  0.14097470     0.02100
C1351       C  0.64757122  0.15082105  0.12437528     0.26900
C1352       C  0.66413877  0.16934893  0.14029642    -0.25700
N1353       N  0.64186991  0.15586888  0.22171784    -0.83100
H1354       H  0.61372041  0.12200176  0.18544631     0.12700
C1355       C  0.61257217  0.11328889  0.12495807     0.02100
N1356       N  0.64784999  0.15026386  0.09140312    -0.81600
H1357       H  0.67786070  0.18274721  0.12751349     0.17500
C1358       C  0.58182757  0.11705801  0.11867713    -0.26500
C1359       C  0.56517184  0.09889210  0.10209012     0.35600
C1360       C  0.57982025  0.07685711  0.09132432    -0.20500
C1361       C  0.61045737  0.07294392  0.09807467    -0.25700
C1362       C  0.62687312  0.09072050  0.11539591     0.26900
H1363       H  0.57097132  0.13435859  0.12642334     0.12700
N1364       N  0.53371188  0.10295955  0.09557321    -0.83000
H1365       H  0.62142100  0.05569457  0.09030962     0.17500
N1366       N  0.65757845  0.08555121  0.12423502    -0.81600
H1367       H  0.52636409  0.12005096  0.10525097     0.33200
H1368       H  0.53149128  0.10491059  0.07183267     0.37700
H1369       H  0.66435680  0.06774816  0.11611976     0.33100
H1370       H  0.67165237  0.09890306  0.11371991     0.29800
H1371       H  0.66131284  0.16495203  0.08271875     0.33100
H1372       H  0.65793530  0.13331805  0.08435900     0.29800
H1373       H  0.66317949  0.15162030  0.23068223     0.37700
H1374       H  0.62699665  0.14211034  0.23025128     0.33200
C1375       C  0.58473499  0.08200862  0.42180049    -0.20600
C1376       C  0.59986606  0.10154523  0.43782565     0.35700
C1377       C  0.61549060  0.12037451  0.42119801    -0.26500
C1378       C  0.61664225  0.11967662  0.38907391     0.02100
C1379       C  0.60252522  0.09962143  0.37315415     0.26900
C1380       C  0.58613413  0.08132209  0.38967582    -0.25700
N1381       N  0.59916139  0.10229114  0.47075535    -0.83100
H1382       H  0.62694010  0.13560020  0.43325767     0.12700
C1383       C  0.63391432  0.13941506  0.37243161     0.02100
N1384       N  0.60625400  0.09712716  0.34052726    -0.81600
H1385       H  0.57519711  0.06592759  0.37744263     0.17500
C1386       C  0.66548731  0.13756640  0.37114593    -0.26500
C1387       C  0.68285890  0.15578489  0.35537330     0.35600
C1388       C  0.66810053  0.17583811  0.33994812    -0.20500
C1389       C  0.63646053  0.17763425  0.34137160    -0.25700
C1390       C  0.61921875  0.15992291  0.35800573     0.26900
H1391       H  0.67656245  0.12184246  0.38256910     0.12700
N1392       N  0.71520574  0.15343711  0.35412414    -0.83000
H1393       H  0.62519273  0.19330338  0.33003712     0.17500
N1394       N  0.58711871  0.16331236  0.36139018    -0.81600
H1395       H  0.72215206  0.13667528  0.36487477     0.33200
H1396       H  0.72437897  0.16830645  0.36700720     0.37700
H1397       H  0.58009418  0.17986337  0.35022148     0.33100
H1398       H  0.57613448  0.14826060  0.35050012     0.29800
H1399       H  0.59555270  0.08066043  0.33260746     0.33100
H1400       H  0.59542477  0.11235467  0.32989059     0.29800
H1401       H  0.57676706  0.10535769  0.47746016     0.37700
H1402       H  0.61169720  0.11772986  0.47892827     0.33200
C1403       C  0.66847870  0.32914286  0.16698167    -0.20600
C1404       C  0.66493862  0.32793486  0.13487687     0.35700
C1405       C  0.64767013  0.34650005  0.11993517    -0.26500
C1406       C  0.63410137  0.36640329  0.13625780     0.02100
C1407       C  0.63784315  0.36781746  0.16833849     0.26900
C1408       C  0.65473854  0.34894799  0.18345018    -0.25700
N1409       N  0.67808694  0.30744953  0.11762939    -0.83100
H1410       H  0.64441980  0.34529614  0.09536428     0.12700
C1411       C  0.61634143  0.38563021  0.11909116     0.02100
N1412       N  0.62471176  0.38846255  0.18531614    -0.81600
H1413       H  0.65749251  0.34982889  0.20810651     0.17500
C1414       C  0.58569273  0.38933858  0.12608335    -0.26500
C1415       C  0.56804249  0.40678652  0.10944308     0.35600
C1416       C  0.58162126  0.42120798  0.08571646    -0.20500
C1417       C  0.61213687  0.41699455  0.07844549    -0.25700
C1418       C  0.62961112  0.39944851  0.09486849     0.26900
H1419       H  0.57540617  0.37821450  0.14422656     0.12700
N1420       N  0.53643876  0.40960678  0.11635541    -0.83000
H1421       H  0.62269805  0.42781860  0.06021786     0.17500
N1422       N  0.66093049  0.39575588  0.08724334    -0.81600
H1423       H  0.53020522  0.39784811  0.13463374     0.33200
H1424       H  0.52428176  0.40324728  0.09729280     0.37700
H1425       H  0.66717918  0.40717604  0.06866668     0.33100
H1426       H  0.67379851  0.40179295  0.10596796     0.29800
H1427       H  0.62958613  0.38669674  0.20866239     0.33100
H1428       H  0.63506114  0.40525961  0.17790213     0.29800
H1429       H  0.66738264  0.29063937  0.12446674     0.37700
H1430       H  0.67364792  0.30958127  0.09423986     0.33200
C1431       C  0.90918588  0.07285652  0.08502287    -0.20600
C1432       C  0.91044276  0.07476503  0.11734875     0.35700
C1433       C  0.89291565  0.09320764  0.13234319    -0.26500
C1434       C  0.87407463  0.10953128  0.11580906     0.02100
C1435       C  0.87237467  0.10749812  0.08368899     0.26900
C1436       C  0.88978960  0.08899744  0.06860213    -0.25700
N1437       N  0.92917519  0.05787276  0.13490126    -0.83100
H1438       H  0.89402081  0.09500298  0.15706349     0.12700
C1439       C  0.85759586  0.12960280  0.13247904     0.02100
N1440       N  0.85370464  0.12471551  0.06653007    -0.81600
H1441       H  0.88871369  0.08755297  0.04385515     0.17500
C1442       C  0.87209278  0.15290101  0.13753169    -0.26500
C1443       C  0.85783611  0.17227719  0.15423771     0.35600
C1444       C  0.82845573  0.16821248  0.16579254    -0.20500
C1445       C  0.81378749  0.14497968  0.16048135    -0.25700
C1446       C  0.82834806  0.12537705  0.14427192     0.26900
H1447       H  0.89466074  0.15587009  0.12850917     0.12700
N1448       N  0.87288500  0.19616375  0.15922876    -0.83000
H1449       H  0.79123810  0.14199239  0.16953492     0.17500
N1450       N  0.81400721  0.10104383  0.14044895    -0.81600
H1451       H  0.89444219  0.19599591  0.14938394     0.33200
H1452       H  0.86058515  0.21018996  0.14774665     0.37700
H1453       H  0.79281412  0.10089226  0.15107882     0.33100
H1454       H  0.81016891  0.09833063  0.11705166     0.29800
H1455       H  0.85544913  0.12100251  0.04305293     0.33100
H1456       H  0.83121867  0.12123420  0.07258878     0.29800
H1457       H  0.92037068  0.03953012  0.13241168     0.37700
H1458       H  0.92791224  0.06220814  0.15825338     0.33200
C1459       C  0.83855768  0.32990860  0.32717427    -0.20600
C1460       C  0.82394736  0.35039773  0.34184063     0.35700
C1461       C  0.84138222  0.36873940  0.35721581    -0.26500
C1462       C  0.87295569  0.36679426  0.35832048     0.02100
C1463       C  0.88755194  0.34617196  0.34401100     0.26900
C1464       C  0.87018555  0.32813839  0.32807802    -0.25700
N1465       N  0.79156245  0.35254869  0.34092090    -0.83100
H1466       H  0.83037098  0.38453643  0.36857622     0.12700
C1467       C  0.89030797  0.38595656  0.37572374     0.02100
N1468       N  0.91969572  0.34296789  0.34699229    -0.81600
H1469       H  0.88128285  0.31211848  0.31727482     0.17500
C1470       C  0.89237593  0.38351911  0.40762450    -0.26500
C1471       C  0.90820365  0.40153447  0.42518616     0.35600
C1472       C  0.92239146  0.42222235  0.41037870    -0.20500
C1473       C  0.92046960  0.42450878  0.37838395    -0.25700
C1474       C  0.90407775  0.40677646  0.36090339     0.26900
H1475       H  0.88150788  0.36752617  0.41879939     0.12700
N1476       N  0.91015656  0.39879115  0.45790762    -0.83000
H1477       H  0.93090305  0.44066533  0.36713946     0.17500
N1478       N  0.90018838  0.41044604  0.32847711    -0.81600
H1479       H  0.89834169  0.38264324  0.46517422     0.33200
H1480       H  0.93286399  0.39576093  0.46339989     0.37700
H1481       H  0.91093036  0.42715457  0.32135362     0.33100
H1482       H  0.91094418  0.39555444  0.31705293     0.29800
H1483       H  0.92669565  0.32630126  0.33604854     0.33100
H1484       H  0.93034785  0.35795314  0.33558579     0.29800
H1485       H  0.78531326  0.35536965  0.31807028     0.37700
H1486       H  0.78439607  0.36860525  0.35302112     0.33200
C1487       C  0.91681444  0.07715272  0.41365435    -0.20600
C1488       C  0.88513573  0.07540284  0.41014948     0.35700
C1489       C  0.86974363  0.09448294  0.39399940    -0.26500
C1490       C  0.88538900  0.11513537  0.38140280     0.02100
C1491       C  0.91696900  0.11699549  0.38491335     0.26900
C1492       C  0.93247408  0.09774251  0.40072843    -0.25700
N1493       N  0.86880357  0.05408386  0.42252391    -0.83100
H1494       H  0.84545127  0.09328106  0.39113856     0.12700
C1495       C  0.86818785  0.13494316  0.36508052     0.02100
N1496       N  0.93295025  0.13876388  0.37322482    -0.81600
H1497       H  0.95675360  0.09907653  0.40359085     0.17500
C1498       C  0.85523113  0.15477701  0.38195790    -0.26500
C1499       C  0.83857651  0.17398078  0.36733282     0.35600
C1500       C  0.83497459  0.17319235  0.33518343    -0.20500
C1501       C  0.84795633  0.15324782  0.31837694    -0.25700
C1502       C  0.86420586  0.13385932  0.33309643     0.26900
H1503       H  0.85831695  0.15530287  0.40658855     0.12700
N1504       N  0.82593893  0.19450502  0.38489776    -0.83000
H1505       H  0.84498337  0.15259808  0.29373821     0.17500
N1506       N  0.87594512  0.11274665  0.31589235    -0.81600
H1507       H  0.83041714  0.19205076  0.40823406     0.33200
H1508       H  0.83699418  0.21120962  0.37825897     0.37700
H1509       H  0.87039622  0.11453159  0.29270566     0.33100
H1510       H  0.89950897  0.11335653  0.31715726     0.29800
H1511       H  0.95596939  0.13749369  0.37839063     0.33100
H1512       H  0.93129590  0.13852683  0.34934833     0.29800
H1513       H  0.87605122  0.03781793  0.41088446     0.37700
H1514       H  0.84567137  0.05584398  0.41814975     0.33200
C1515       C  0.67228435  0.33401739  0.33137579    -0.20600
C1516       C  0.64089891  0.33823431  0.32750062     0.35700
C1517       C  0.62679110  0.35783101  0.34387833    -0.26500
C1518       C  0.64322904  0.37373509  0.36347598     0.02100
C1519       C  0.67458057  0.36991466  0.36703482     0.26900
C1520       C  0.68874987  0.34994291  0.35112743    -0.25700
N1521       N  0.62310848  0.32216922  0.30785330    -0.83100
H1522       H  0.60262794  0.36059673  0.34159036     0.12700
C1523       C  0.62669949  0.39353665  0.38093038     0.02500
N1524       N  0.69182738  0.38629167  0.38678096    -0.81600
H1525       H  0.71278562  0.34687296  0.35406666     0.17500
C1526       C  0.62756632  0.39314907  0.41305472    -0.26500
C1527       C  0.61010462  0.41013041  0.43048013     0.35600
C1528       C  0.59123988  0.42776254  0.41537796    -0.20500
C1529       C  0.59052093  0.42822026  0.38321381    -0.25700
C1530       C  0.60837295  0.41152477  0.36582438     0.26900
H1531       H  0.64130987  0.37905579  0.42457353     0.12700
N1532       N  0.61094180  0.40909098  0.46339449    -0.83000
H1533       H  0.57639619  0.44197588  0.37157959     0.17500
N1534       N  0.60809203  0.41277623  0.33289879    -0.81600
H1535       H  0.62619759  0.39524025  0.47082002     0.33200
H1536       H  0.58956717  0.40334077  0.47096395     0.37700
H1537       H  0.59340005  0.42700916  0.32536741     0.33100
H1538       H  0.62976940  0.41806489  0.32573228     0.29800
H1539       H  0.71455362  0.38086977  0.38697086     0.33100
H1540       H  0.69107567  0.40460455  0.37750354     0.29800
H1541       H  0.62882716  0.32669023  0.28524434     0.37700
H1542       H  0.60010266  0.32632388  0.31005612     0.33200
C1543       C  0.91476019  0.41939410  0.07882166    -0.20600
C1544       C  0.88288440  0.41795241  0.07724792     0.35700
C1545       C  0.86768333  0.39873576  0.09345613    -0.26500
C1546       C  0.88363209  0.38108562  0.11113738     0.02100
C1547       C  0.91548315  0.38186496  0.11184167     0.26900
C1548       C  0.93071916  0.40131550  0.09601547    -0.25700
N1549       N  0.86598993  0.43635185  0.05996985    -0.83100
H1550       H  0.84322220  0.39772156  0.09275757     0.12700
C1551       C  0.86644889  0.36182759  0.12858527     0.02100
N1552       N  0.93221899  0.36241598  0.12757005    -0.81600
H1553       H  0.95518605  0.40218560  0.09675592     0.17500
C1554       C  0.85433108  0.34090001  0.11297979    -0.26500
C1555       C  0.83742074  0.32235345  0.12861997     0.35600
C1556       C  0.83313296  0.32468737  0.16054866    -0.20500
C1557       C  0.84490523  0.34583600  0.17605843    -0.25700
C1558       C  0.86084332  0.36486780  0.16019445     0.26900
H1559       H  0.85813287  0.33907751  0.08853574     0.12700
N1560       N  0.82504850  0.30098866  0.11233059    -0.83000
H1561       H  0.84094656  0.34780487  0.20046098     0.17500
N1562       N  0.86994033  0.38779171  0.17564628    -0.81600
H1563       H  0.82994461  0.30232426  0.08893665     0.33200
H1564       H  0.83588665  0.28463593  0.12032573     0.37700
H1565       H  0.86297803  0.38741911  0.19855167     0.33100
H1566       H  0.89350196  0.38858751  0.17592508     0.29800
H1567       H  0.95546028  0.36537235  0.12497021     0.33100
H1568       H  0.92773323  0.36388181  0.15098415     0.29800
H1569       H  0.86883590  0.45398838  0.07064417     0.37700
H1570       H  0.84286662  0.43226522  0.06080806     0.33200
N1571       N  0.96778753  0.47187245  0.93998026    -0.06800
N1572       N  0.96327500  0.45448773  0.91859981    -0.58900
N1573       N  0.94434642  0.02889485  0.96235791    -0.06500
N1574       N  0.92325969  0.04579461  0.95608024    -0.61100
N1575       N  0.96630625  0.03011294  0.94205252    -0.06100
N1576       N  0.96070561  0.04804657  0.92164271    -0.58900
N1577       N  0.94631515  0.47072048  0.96083863    -0.05800
N1578       N  0.92699414  0.45236810  0.95431072    -0.61400
C1579       C  0.93794090  0.44230048  0.92804651     0.95400
C1580       C  0.93379992  0.05765992  0.93074673     0.95100
N1581       N  0.96129979  0.02733657  0.55712582    -0.07000
N1582       N  0.95362929  0.04377371  0.57859378    -0.59500
N1583       N  0.94301526  0.46944911  0.53296665    -0.05100
N1584       N  0.92272855  0.45138328  0.53715232    -0.60800
N1585       N  0.96308418  0.46922328  0.55517536    -0.07000
N1586       N  0.95695204  0.45085407  0.57486092    -0.59800
N1587       N  0.94136244  0.02751574  0.53477452    -0.04800
N1588       N  0.91980890  0.04417829  0.54055110    -0.60900
Mn1589     Mn  0.94303004  0.49915578  0.49768441     1.18400
C1590       C  0.92774478  0.05419190  0.56796324     0.97400
C1591       C  0.93173216  0.43988430  0.56328848     0.98100
N1592       N  0.53766449  0.03147795  0.94550344    -0.07100
N1593       N  0.54350910  0.04986826  0.92582618    -0.63400
N1594       N  0.55934773  0.47325551  0.96552087    -0.05900
N1595       N  0.58072803  0.45641754  0.95990959    -0.64000
N1596       N  0.53949490  0.47352054  0.94308987    -0.06600
N1597       N  0.54711117  0.45698964  0.92167695    -0.63600
N1598       N  0.55757365  0.03159971  0.96789736    -0.05500
N1599       N  0.57721877  0.05028047  0.96401792    -0.64300
Mn1600     Mn  0.50286592  0.00175797  0.94180073     1.10700
C1601       C  0.56802100  0.06159753  0.93777498     0.98700
C1602       C  0.57271130  0.44627554  0.93261588     0.98700
N1603       N  0.53417342  0.47054131  0.55845001    -0.06600
N1604       N  0.53898549  0.45217680  0.57847857    -0.61900
N1605       N  0.55505793  0.02935488  0.54016781    -0.05900
N1606       N  0.57519363  0.04684783  0.54748897    -0.58700
N1607       N  0.53287131  0.02899599  0.56027645    -0.07200
N1608       N  0.53729740  0.04650635  0.58154026    -0.61500
N1609       N  0.55599845  0.47122289  0.53797869    -0.06200
N1610       N  0.57610928  0.45335359  0.54372202    -0.58700
Mn1611     Mn  0.49784898  0.99906407  0.55860087     1.20200
Mn1612     Mn  0.55782243  0.00133762  0.50291465     1.10100
Cl1613     Cl  0.50040106  0.00034006  0.50024706    -0.86700
C1614       C  0.56513025  0.44144152  0.56892797     0.95700
C1615       C  0.56367760  0.05756082  0.57309809     0.95500
N1616       N  0.78563408  0.27656951  0.69012506    -0.06800
N1617       N  0.79089983  0.29380030  0.66877185    -0.58900
N1618       N  0.80514497  0.21865657  0.71335189    -0.06500
N1619       N  0.82465315  0.20028250  0.70767378    -0.61100
N1620       N  0.78309845  0.21825635  0.69312896    -0.06100
N1621       N  0.78694784  0.19943210  0.67349579    -0.58900
N1622       N  0.80708696  0.27702252  0.71096707    -0.05800
N1623       N  0.82723770  0.29475534  0.70443156    -0.61400
C1624       C  0.81681384  0.30504820  0.67809665     0.95400
C1625       C  0.81282093  0.18833257  0.68299351     0.95100
N1626       N  0.78772915  0.22245679  0.80808022    -0.07000
N1627       N  0.79371245  0.20541972  0.82944918    -0.59500
N1628       N  0.80972207  0.27914251  0.78306444    -0.05100
N1629       N  0.83060933  0.29679475  0.78694969    -0.60800
N1630       N  0.78912928  0.28063425  0.80476847    -0.07000
N1631       N  0.79539543  0.29947023  0.82369145    -0.59800
N1632       N  0.80764104  0.22098911  0.78571952    -0.04800
N1633       N  0.82740678  0.20280974  0.79127039    -0.60900
Mn1634     Mn  0.80828704  0.24889987  0.74822685     1.18400
C1635       C  0.81843497  0.19326092  0.81858061     0.97400
C1636       C  0.82119407  0.30946712  0.81218273     0.98100
N1637       N  0.71204468  0.22045269  0.69533980    -0.07100
N1638       N  0.70530827  0.20212589  0.67587347    -0.63400
N1639       N  0.69440667  0.27996936  0.71523239    -0.05900
N1640       N  0.67541556  0.29888471  0.71041663    -0.64000
N1641       N  0.71448254  0.27872480  0.69303010    -0.06600
N1642       N  0.70939351  0.29662117  0.67248228    -0.63600
N1643       N  0.69193634  0.22141133  0.71751524    -0.05500
N1644       N  0.67115747  0.20364461  0.71367819    -0.64300
Mn1645     Mn  0.74877714  0.24845380  0.69198922     1.10700
C1646       C  0.67989835  0.19165563  0.68769965     0.98700
C1647       C  0.68503617  0.30910543  0.68368463     0.98700
N1648       N  0.71794899  0.28230779  0.80741823    -0.06600
N1649       N  0.71360142  0.30148987  0.82650705    -0.61900
N1650       N  0.69451730  0.22362731  0.78969211    -0.05900
N1651       N  0.67408099  0.20620483  0.79643668    -0.58700
N1652       N  0.71627489  0.22367097  0.81022260    -0.07200
N1653       N  0.71118769  0.20608022  0.83122545    -0.61500
N1654       N  0.69640993  0.28169970  0.78672694    -0.06200
N1655       N  0.67701669  0.30026841  0.79128270    -0.58700
Mn1656     Mn  0.75278710  0.25230492  0.80860854     1.20200
Mn1657     Mn  0.69346260  0.25163178  0.75231589     1.10100
Cl1658     Cl  0.75085186  0.25026777  0.75030418    -0.86700
C1659       C  0.68790123  0.31254128  0.81610359     0.95700
C1660       C  0.68488930  0.19522952  0.82221769     0.95500
C1661       C  0.66251813  0.17126862  0.67236629    -0.20600
C1662       C  0.64398288  0.15418713  0.68891189     0.35700
C1663       C  0.62780092  0.13532188  0.67297060    -0.26500
C1664       C  0.62971317  0.13339528  0.64099230     0.02100
C1665       C  0.64757754  0.15080464  0.62439081     0.26900
C1666       C  0.66414685  0.16933293  0.64030932    -0.25700
N1667       N  0.64190950  0.15584038  0.72173619    -0.83100
H1668       H  0.61374082  0.12198150  0.68546724     0.12700
C1669       C  0.61257223  0.11327774  0.62497575     0.02100
N1670       N  0.64785845  0.15024238  0.59141890    -0.81600
H1671       H  0.67786611  0.18273172  0.62752424     0.17500
C1672       C  0.58183424  0.11706031  0.61867302    -0.26500
C1673       C  0.56517748  0.09889929  0.60207880     0.35600
C1674       C  0.57981800  0.07685479  0.59133022    -0.20500
C1675       C  0.61044836  0.07292920  0.59810083    -0.25700
C1676       C  0.62686519  0.09070235  0.61542607     0.26900
H1677       H  0.57098478  0.13436783  0.62640643     0.12700
N1678       N  0.53372547  0.10298147  0.59553609    -0.83000
H1679       H  0.62140601  0.05567388  0.59034639     0.17500
N1680       N  0.65756514  0.08552521  0.62427711    -0.81600
H1681       H  0.52638306  0.12007895  0.60520242     0.33200
H1682       H  0.53152439  0.10492844  0.57179316     0.37700
H1683       H  0.66433875  0.06771900  0.61616791     0.33100
H1684       H  0.67164738  0.09887175  0.61376317     0.29800
H1685       H  0.66132430  0.16492765  0.58273221     0.33100
H1686       H  0.65794230  0.13329410  0.58438059     0.29800
H1687       H  0.66322476  0.15159280  0.73068754     0.37700
H1688       H  0.62704374  0.14207764  0.73027314     0.33200
C1689       C  0.58472908  0.08200875  0.92179574    -0.20600
C1690       C  0.59986052  0.10154501  0.93782099     0.35700
C1691       C  0.61548206  0.12037598  0.92119350    -0.26500
C1692       C  0.61663048  0.11968039  0.88906929     0.02100
C1693       C  0.60251168  0.09962636  0.87314885     0.26900
C1694       C  0.58612368  0.08132502  0.88967067    -0.25700
N1695       N  0.59915976  0.10228863  0.97075082    -0.83100
H1696       H  0.62693275  0.13560084  0.93325352     0.12700
C1697       C  0.63390509  0.13941818  0.87242863     0.02100
N1698       N  0.60623604  0.09713495  0.84052112    -0.81600
H1699       H  0.57518578  0.06593111  0.87743719     0.17500
C1700       C  0.66547802  0.13756705  0.87114476    -0.26500
C1701       C  0.68285294  0.15578591  0.85537654     0.35600
C1702       C  0.66809794  0.17584192  0.83995357    -0.20500
C1703       C  0.63645815  0.17764124  0.84137643    -0.25700
C1704       C  0.61921305  0.15992953  0.85800633     0.26900
H1705       H  0.67655052  0.12184089  0.88256613     0.12700
N1706       N  0.71519956  0.15343572  0.85412937    -0.83000
H1707       H  0.62519302  0.19331275  0.83004399     0.17500
N1708       N  0.58711343  0.16332203  0.86139012    -0.81600
H1709       H  0.72214340  0.13667289  0.86487952     0.33200
H1710       H  0.72437348  0.16830393  0.86701378     0.37700
H1711       H  0.58009198  0.17987560  0.85022483     0.33100
H1712       H  0.57612741  0.14827324  0.85049608     0.29800
H1713       H  0.59553447  0.08066849  0.83260087     0.33100
H1714       H  0.59540437  0.11236289  0.82988797     0.29800
H1715       H  0.57676604  0.10535370  0.97745867     0.37700
H1716       H  0.61169553  0.11772738  0.97892378     0.33200
C1717       C  0.66848037  0.32914122  0.66698145    -0.20600
C1718       C  0.66494338  0.32793618  0.63487610     0.35700
C1719       C  0.64767828  0.34650381  0.61993481    -0.26500
C1720       C  0.63411012  0.36640681  0.63625830     0.02100
C1721       C  0.63784975  0.36781860  0.66833943     0.26900
C1722       C  0.65474123  0.34894640  0.68345079    -0.25700
N1723       N  0.67809123  0.30745129  0.61762747    -0.83100
H1724       H  0.64442957  0.34530167  0.59536357     0.12700
C1725       C  0.61635023  0.38563437  0.61909251     0.02100
N1726       N  0.62472032  0.38846414  0.68531784    -0.81600
H1727       H  0.65749323  0.34982536  0.70810746     0.17500
C1728       C  0.58570128  0.38934140  0.62608442    -0.26500
C1729       C  0.56804980  0.40678802  0.60944362     0.35600
C1730       C  0.58162761  0.42121031  0.58571732    -0.20500
C1731       C  0.61214381  0.41699866  0.57844681    -0.25700
C1732       C  0.62961912  0.39945307  0.59486966     0.26900
H1733       H  0.57541522  0.37821666  0.64422733     0.12700
N1734       N  0.53644549  0.40960572  0.61635467    -0.83000
H1735       H  0.62270429  0.42782321  0.56021920     0.17500
N1736       N  0.66093833  0.39576073  0.58724359    -0.81600
H1737       H  0.53021258  0.39784662  0.63463280     0.33200
H1738       H  0.52429002  0.40324510  0.59729159     0.37700
H1739       H  0.66718630  0.40718088  0.56866671     0.33100
H1740       H  0.67380688  0.40179786  0.60596782     0.29800
H1741       H  0.62959273  0.38669642  0.70866426     0.33100
H1742       H  0.63507297  0.40526047  0.67790601     0.29800
H1743       H  0.66738430  0.29064144  0.62446151     0.37700
H1744       H  0.67365498  0.30958543  0.59423766     0.33200
C1745       C  0.90919256  0.07285956  0.58502303    -0.20600
C1746       C  0.91044968  0.07476577  0.61734918     0.35700
C1747       C  0.89292393  0.09320813  0.63234560    -0.26500
C1748       C  0.87408447  0.10953414  0.61581318     0.02100
C1749       C  0.87238588  0.10750458  0.58369265     0.26900
C1750       C  0.88979881  0.08900363  0.56860382    -0.25700
N1751       N  0.92918092  0.05787135  0.63490002    -0.83100
H1752       H  0.89402864  0.09500117  0.65706616     0.12700
C1753       C  0.85760556  0.12960413  0.63248554     0.02100
N1754       N  0.85371999  0.12472626  0.56653530    -0.81600
H1755       H  0.88872352  0.08756145  0.54385662     0.17500
C1756       C  0.87210572  0.15289920  0.63754937    -0.26500
C1757       C  0.85784724  0.17227470  0.65425481     0.35600
C1758       C  0.82846184  0.16821244  0.66579788    -0.20500
C1759       C  0.81379116  0.14498228  0.66047699    -0.25700
C1760       C  0.82835338  0.12538021  0.64426824     0.26900
H1761       H  0.89467719  0.15586665  0.62853513     0.12700
N1762       N  0.87289918  0.19615842  0.65925628    -0.83000
H1763       H  0.79123830  0.14199656  0.66952241     0.17500
N1764       N  0.81400965  0.10104916  0.64043616    -0.81600
H1765       H  0.89445993  0.19598891  0.64941943     0.33200
H1766       H  0.86060633  0.21018798  0.64777247     0.37700
H1767       H  0.79281356  0.10089854  0.65105984     0.33100
H1768       H  0.81017744  0.09833950  0.61703728     0.29800
H1769       H  0.85546564  0.12101591  0.54305762     0.33100
H1770       H  0.83123296  0.12124709  0.57259153     0.29800
H1771       H  0.92037489  0.03952936  0.63240896     0.37700
H1772       H  0.92791868  0.06220542  0.65825253     0.33200
C1773       C  0.83855820  0.32990701  0.82717884    -0.20600
C1774       C  0.82394731  0.35039481  0.84184738     0.35700
C1775       C  0.84138142  0.36873482  0.85722601    -0.26500
C1776       C  0.87295467  0.36678934  0.85833199     0.02100
C1777       C  0.88755159  0.34616794  0.84402137     0.26900
C1778       C  0.87018597  0.32813599  0.82808481    -0.25700
N1779       N  0.79156250  0.35254631  0.84092597    -0.83100
H1780       H  0.83036980  0.38453126  0.86858727     0.12700
C1781       C  0.89030642  0.38595245  0.87573400     0.02100
N1782       N  0.91969513  0.34296339  0.84700463    -0.81600
H1783       H  0.88128362  0.31211682  0.81728039     0.17500
C1784       C  0.89237530  0.38351636  0.90763482    -0.26500
C1785       C  0.90820276  0.40153300  0.92519468     0.35600
C1786       C  0.92238975  0.42222021  0.91038515    -0.20500
C1787       C  0.92046625  0.42450565  0.87839051    -0.25700
C1788       C  0.90407431  0.40677229  0.86091185     0.26900
H1789       H  0.88150813  0.36752367  0.91881109     0.12700
N1790       N  0.91015592  0.39879188  0.95791642    -0.83000
H1791       H  0.93089852  0.44066209  0.86714467     0.17500
N1792       N  0.90018313  0.41044048  0.82848556    -0.81600
H1793       H  0.89834137  0.38264436  0.96518467     0.33200
H1794       H  0.93286347  0.39576242  0.96340898     0.37700
H1795       H  0.91092373  0.42714917  0.82136059     0.33100
H1796       H  0.91093926  0.39554882  0.81706173     0.29800
H1797       H  0.92669573  0.32629777  0.83605903     0.33100
H1798       H  0.93034826  0.35794975  0.83560122     0.29800
H1799       H  0.78531480  0.35536976  0.81807540     0.37700
H1800       H  0.78439564  0.36860171  0.85302821     0.33200
C1801       C  0.91681088  0.07715289  0.91365982    -0.20600
C1802       C  0.88513274  0.07540009  0.91015130     0.35700
C1803       C  0.86973977  0.09447889  0.89399953    -0.26500
C1804       C  0.88538384  0.11513264  0.88140432     0.02100
C1805       C  0.91696324  0.11699553  0.88491848     0.26900
C1806       C  0.93246906  0.09774436  0.90073607    -0.25700
N1807       N  0.86880222  0.05407922  0.92252322    -0.83100
H1808       H  0.84544787  0.09327482  0.89113606     0.12700
C1809       C  0.86818229  0.13493976  0.86508084     0.02100
N1810       N  0.93294318  0.13876451  0.87322976    -0.81600
H1811       H  0.95674811  0.09908058  0.90360114     0.17500
C1812       C  0.85522709  0.15477485  0.88195716    -0.26500
C1813       C  0.83857532  0.17397980  0.86733103     0.35600
C1814       C  0.83497450  0.17319148  0.83518150    -0.20500
C1815       C  0.84795463  0.15324561  0.81837584    -0.25700
C1816       C  0.86420146  0.13385587  0.83309653     0.26900
H1817       H  0.85831238  0.15530105  0.90658786     0.12700
N1818       N  0.82593974  0.19450538  0.88489515    -0.83000
H1819       H  0.84498254  0.15259587  0.79373701     0.17500
N1820       N  0.87593980  0.11274231  0.81589342    -0.81600
H1821       H  0.83041669  0.19205097  0.90823170     0.33200
H1822       H  0.83699743  0.21120888  0.87825654     0.37700
H1823       H  0.87039261  0.11452756  0.79270638     0.33100
H1824       H  0.89950365  0.11335061  0.81716007     0.29800
H1825       H  0.95596192  0.13749648  0.87839808     0.33100
H1826       H  0.93129123  0.13852565  0.84935308     0.29800
H1827       H  0.87605374  0.03781422  0.91088436     0.37700
H1828       H  0.84567033  0.05583697  0.91814603     0.33200
C1829       C  0.67228613  0.33401786  0.83137572    -0.20600
C1830       C  0.64090092  0.33823618  0.82750143     0.35700
C1831       C  0.62679470  0.35783343  0.84387971    -0.26500
C1832       C  0.64323403  0.37373682  0.86347710     0.02100
C1833       C  0.67458536  0.36991477  0.86703538     0.26900
C1834       C  0.68875302  0.34994257  0.85112726    -0.25700
N1835       N  0.62310913  0.32217205  0.80785426    -0.83100
H1836       H  0.60263166  0.36060019  0.84159232     0.12700
C1837       C  0.62670590  0.39353941  0.88093145     0.02500
N1838       N  0.69183363  0.38629052  0.88678173    -0.81600
H1839       H  0.71278864  0.34687154  0.85406597     0.17500
C1840       C  0.62757327  0.39315258  0.91305580    -0.26500
C1841       C  0.61011086  0.41013366  0.93048098     0.35600
C1842       C  0.59124413  0.42776429  0.91537857    -0.20500
C1843       C  0.59052586  0.42822205  0.88321445    -0.25700
C1844       C  0.60837921  0.41152734  0.86582531     0.26900
H1845       H  0.64131746  0.37905987  0.92457484     0.12700
N1846       N  0.61094940  0.40909540  0.96339538    -0.83000
H1847       H  0.57640040  0.44197702  0.87158001     0.17500
N1848       N  0.60809931  0.41277925  0.83289974    -0.81600
H1849       H  0.62620692  0.39524606  0.97082101     0.33200
H1850       H  0.58957565  0.40334392  0.97096599     0.37700
H1851       H  0.59340719  0.42701201  0.82536818     0.33100
H1852       H  0.62977678  0.41806847  0.82573410     0.29800
H1853       H  0.71455945  0.38086739  0.88697125     0.33100
H1854       H  0.69108322  0.40460363  0.87750481     0.29800
H1855       H  0.62882808  0.32669269  0.78524523     0.37700
H1856       H  0.60010368  0.32632800  0.81005723     0.33200
C1857       C  0.91475527  0.41939474  0.57881795    -0.20600
C1858       C  0.88288080  0.41794132  0.57722830     0.35700
C1859       C  0.86768135  0.39872304  0.59343542    -0.26500
C1860       C  0.88363013  0.38108251  0.61113067     0.02100
C1861       C  0.91548044  0.38187273  0.61185002     0.26900
C1862       C  0.93071445  0.40132505  0.59602529    -0.25700
N1863       N  0.86598537  0.43633018  0.55993483    -0.83100
H1864       H  0.84322104  0.39770026  0.59272518     0.12700
C1865       C  0.86644764  0.36182393  0.62857851     0.02100
N1866       N  0.93221849  0.36243243  0.62759163    -0.81600
H1867       H  0.95518057  0.40220331  0.59677760     0.17500
C1868       C  0.85434163  0.34089018  0.61297543    -0.26500
C1869       C  0.83743027  0.32234404  0.62861541     0.35600
C1870       C  0.83313015  0.32468454  0.66054164    -0.20500
C1871       C  0.84489093  0.34583891  0.67604879    -0.25700
C1872       C  0.86082924  0.36487035  0.66018453     0.26900
H1873       H  0.85815291  0.33906283  0.58853341     0.12700
N1874       N  0.82506913  0.30097335  0.61232863    -0.83000
H1875       H  0.84092276  0.34781251  0.70044921     0.17500
N1876       N  0.86991256  0.38780014  0.67563202    -0.81600
H1877       H  0.82997386  0.30230425  0.58893614     0.33200
H1878       H  0.83590798  0.28462428  0.62033364     0.37700
H1879       H  0.86294118  0.38743153  0.69853466     0.33100
H1880       H  0.89347377  0.38860167  0.67592043     0.29800
H1881       H  0.95545953  0.36539613  0.62500180     0.33100
H1882       H  0.92772161  0.36390092  0.65100329     0.29800
H1883       H  0.86881568  0.45397018  0.57060503     0.37700
H1884       H  0.84286386  0.43223461  0.56076153     0.33200
N1885       N  0.96779319  0.97187585  0.43997667    -0.06800
N1886       N  0.96327863  0.95449257  0.41859470    -0.58900
N1887       N  0.94433741  0.52889238  0.46235780    -0.06500
N1888       N  0.92324929  0.54579106  0.45607986    -0.61100
N1889       N  0.96629734  0.53011189  0.44205258    -0.06100
N1890       N  0.96069566  0.54804541  0.42164307    -0.58900
N1891       N  0.94631934  0.97072547  0.46083369    -0.05800
N1892       N  0.92699541  0.95237573  0.45430322    -0.61400
C1893       C  0.93794164  0.94230785  0.42803877     0.95400
C1894       C  0.93378918  0.55765729  0.43074663     0.95100
N1895       N  0.96129673  0.52733210  0.05712856    -0.07000
N1896       N  0.95362681  0.54376771  0.07859821    -0.59500
N1897       N  0.94301748  0.96945232  0.03296687    -0.05100
N1898       N  0.92273274  0.95138437  0.03714916    -0.60800
N1899       N  0.96308446  0.96922694  0.05517727    -0.07000
N1900       N  0.95695308  0.95085574  0.07486061    -0.59800
N1901       N  0.94135589  0.52750894  0.03478049    -0.04800
N1902       N  0.91979991  0.54416822  0.04056135    -0.60900
Mn1903     Mn  0.94303534  0.99915888  0.99768415     1.18400
C1904       C  0.92773857  0.55418231  0.06797252     0.97400
C1905       C  0.93173538  0.93988438  0.06328512     0.98100
N1906       N  0.53767674  0.53147699  0.44550865    -0.07100
N1907       N  0.54352363  0.54986814  0.42583346    -0.63400
N1908       N  0.55934346  0.97326027  0.46551906    -0.05900
N1909       N  0.58072506  0.95642368  0.45990782    -0.64000
N1910       N  0.53949026  0.97352397  0.44308845    -0.06600
N1911       N  0.54710746  0.95699326  0.42167573    -0.63600
N1912       N  0.55758467  0.53159692  0.46790367    -0.05500
N1913       N  0.57723143  0.55027684  0.46402691    -0.64300
Mn1914     Mn  0.50287555  0.50175898  0.44180075     1.10700
C1915       C  0.56803576  0.56159559  0.43778443     0.98700
C1916       C  0.57270882  0.94628107  0.43261446     0.98700
N1917       N  0.53417376  0.97054411  0.05844941    -0.06600
N1918       N  0.53898722  0.95218020  0.07847826    -0.61900
N1919       N  0.55506541  0.52935259  0.04016970    -0.05900
N1920       N  0.57520401  0.54684309  0.04749211    -0.58700
N1921       N  0.53287701  0.52899710  0.06027665    -0.07200
N1922       N  0.53730493  0.54650748  0.08154010    -0.61500
N1923       N  0.55599768  0.97122633  0.03797701    -0.06200
N1924       N  0.57610948  0.95335761  0.04372008    -0.58700
Mn1925     Mn  0.49785075  0.49906735  0.05860240     1.20200
Mn1926     Mn  0.55782777  0.50133393  0.00291673     1.10100
Cl1927     Cl  0.50040608  0.50034053  0.00024814    -0.86700
C1928       C  0.56513182  0.94144550  0.06892689     0.95700
C1929       C  0.56368786  0.55755842  0.07309984     0.95500
N1930       N  0.78563305  0.77657217  0.19012572    -0.06800
N1931       N  0.79089750  0.79380470  0.16877422    -0.58900
N1932       N  0.80514449  0.71865822  0.21335237    -0.06500
N1933       N  0.82465296  0.70028389  0.20767603    -0.61100
N1934       N  0.78309919  0.71825773  0.19312823    -0.06100
N1935       N  0.78694991  0.69943311  0.17349557    -0.58900
N1936       N  0.80708514  0.77702569  0.21096855    -0.05800
N1937       N  0.82723422  0.79476061  0.20443509    -0.61400
C1938       C  0.81680986  0.80505437  0.17810069     0.95400
C1939       C  0.81282244  0.68833350  0.18299522     0.95100
N1940       N  0.78772117  0.72245662  0.30807899    -0.07000
N1941       N  0.79370216  0.70541723  0.32944607    -0.59500
N1942       N  0.80971663  0.77914325  0.28306610    -0.05100
N1943       N  0.83060424  0.79679508  0.28695119    -0.60800
N1944       N  0.78912386  0.78063532  0.30477014    -0.07000
N1945       N  0.79539074  0.79947128  0.32369319    -0.59800
N1946       N  0.80763382  0.72098947  0.28571892    -0.04800
N1947       N  0.82739769  0.70280840  0.29126834    -0.60900
Mn1948     Mn  0.80828321  0.74890149  0.24822785     1.18400
C1949       C  0.81842415  0.69325776  0.31857697     0.97400
C1950       C  0.82118984  0.80946763  0.31218425     0.98100
N1951       N  0.71204546  0.72045301  0.19534170    -0.07100
N1952       N  0.70531604  0.70211914  0.17588269    -0.63400
N1953       N  0.69440566  0.77997143  0.21522896    -0.05900
N1954       N  0.67541558  0.79888713  0.21041146    -0.64000
N1955       N  0.71448265  0.77872598  0.19302774    -0.06600
N1956       N  0.70939569  0.79662223  0.17247925    -0.63600
N1957       N  0.69193617  0.72141255  0.21751625    -0.05500
N1958       N  0.67116405  0.70363914  0.21368646    -0.64300
Mn1959     Mn  0.74877694  0.74845515  0.19198868     1.10700
C1960       C  0.67990989  0.69164549  0.18771291     0.98700
C1961       C  0.68503807  0.80910710  0.18367971     0.98700
N1962       N  0.71794222  0.78230997  0.30741803    -0.06600
N1963       N  0.71359360  0.80149052  0.32650885    -0.61900
N1964       N  0.69450987  0.72363043  0.28968996    -0.05900
N1965       N  0.67407558  0.70620538  0.29643198    -0.58700
N1966       N  0.71626809  0.72367313  0.31021960    -0.07200
N1967       N  0.71118379  0.70607935  0.33121912    -0.61500
N1968       N  0.69640397  0.78170330  0.28672568    -0.06200
N1969       N  0.67701023  0.80027160  0.29128283    -0.58700
Mn1970     Mn  0.75278041  0.75230639  0.30860799     1.20200
Mn1971     Mn  0.69345833  0.75163492  0.25231388     1.10100
Cl1972     Cl  0.75084806  0.75027007  0.25030367    -0.86700
C1973       C  0.68789377  0.81254266  0.31610566     0.95700
C1974       C  0.68488645  0.69522767  0.32221057     0.95500
C1975       C  0.66253469  0.67125319  0.17238492    -0.20600
C1976       C  0.64401462  0.65416344  0.18893549     0.35700
C1977       C  0.62782874  0.63529851  0.17299661    -0.26500
C1978       C  0.62972498  0.63337976  0.14101626     0.02100
C1979       C  0.64758109  0.65079307  0.12441205     0.26900
C1980       C  0.66415141  0.66932217  0.14032735    -0.25700
N1981       N  0.64196117  0.65580823  0.22176175    -0.83100
H1982       H  0.61377824  0.62195295  0.18549623     0.12700
C1983       C  0.61258117  0.61326427  0.12499834     0.02100
N1984       N  0.64785558  0.65023130  0.09144025    -0.81600
H1985       H  0.67786198  0.68272539  0.12753942     0.17500
C1986       C  0.58184894  0.61705704  0.11867565    -0.26500
C1987       C  0.56519417  0.59890159  0.10207010     0.35600
C1988       C  0.57982980  0.57685059  0.09133406    -0.20500
C1989       C  0.61045519  0.57291654  0.09812070    -0.25700
C1990       C  0.62687092  0.59068644  0.11545239     0.26900
H1991       H  0.57100330  0.63436893  0.12640030     0.12700
N1992       N  0.53374974  0.60299641  0.09550171    -0.83000
H1993       H  0.62140997  0.55565820  0.09037193     0.17500
N1994       N  0.65756874  0.58550640  0.12430806    -0.81600
H1995       H  0.52641018  0.62009812  0.10515949     0.33200
H1996       H  0.53156850  0.60494206  0.07175672     0.37700
H1997       H  0.66434180  0.56770031  0.11619801     0.33100
H1998       H  0.67165310  0.59885300  0.11379669     0.29800
H1999       H  0.66131735  0.66491821  0.08275104     0.33100
H2000       H  0.65794155  0.63328401  0.08440099     0.29800
H2001       H  0.66328416  0.65156580  0.23069781     0.37700
H2002       H  0.62710743  0.64203829  0.23030332     0.33200
C2003       C  0.58474818  0.58200368  0.42180455    -0.20600
C2004       C  0.59988776  0.60153673  0.43782773     0.35700
C2005       C  0.61550950  0.62036602  0.42119752    -0.26500
C2006       C  0.61665010  0.61967138  0.38907287     0.02100
C2007       C  0.60252634  0.59961858  0.37315496     0.26900
C2008       C  0.58613794  0.58131961  0.38967942    -0.25700
N2009       N  0.59919441  0.60227927  0.47075778    -0.83100
H2010       H  0.62696518  0.63558934  0.43325551     0.12700
C2011       C  0.63391896  0.63941007  0.37242809     0.02100
N2012       N  0.60624606  0.59712571  0.34052682    -0.81600
H2013       H  0.57519510  0.56592733  0.37744749     0.17500
C2014       C  0.66549176  0.63756187  0.37113807    -0.26500
C2015       C  0.68286092  0.65578170  0.35536523     0.35600
C2016       C  0.66810008  0.67583592  0.33994439    -0.20500
C2017       C  0.63646029  0.67763154  0.34137199    -0.25700
C2018       C  0.61922101  0.65991886  0.35800654     0.26900
H2019       H  0.67656872  0.62183743  0.38255845     0.12700
N2020       N  0.71520766  0.65343444  0.35411165    -0.83000
H2021       H  0.62519086  0.69330161  0.33004107     0.17500
N2022       N  0.58712159  0.66330860  0.36139698    -0.81600
H2023       H  0.72215566  0.63667180  0.36485940     0.33200
H2024       H  0.72438223  0.66830278  0.36699534     0.37700
H2025       H  0.58009567  0.67986092  0.35023197     0.33100
H2026       H  0.57613490  0.64825837  0.35050658     0.29800
H2027       H  0.59554140  0.58065990  0.33260880     0.33100
H2028       H  0.59541515  0.61235412  0.32989400     0.29800
H2029       H  0.57680291  0.60534799  0.47747091     0.37700
H2030       H  0.61173576  0.61771554  0.47892865     0.33200
C2031       C  0.66848469  0.82914404  0.16697634    -0.20600
C2032       C  0.66495417  0.82794349  0.13486998     0.35700
C2033       C  0.64768842  0.84651124  0.11992966    -0.26500
C2034       C  0.63411430  0.86641056  0.13625489     0.02100
C2035       C  0.63784807  0.86781786  0.16833710     0.26900
C2036       C  0.65473984  0.84894540  0.18344722    -0.25700
N2037       N  0.67810912  0.80746312  0.11761907    -0.83100
H2038       H  0.64444371  0.84531185  0.09535769     0.12700
C2039       C  0.61635368  0.88563842  0.11908998     0.02100
N2040       N  0.62471194  0.88845884  0.18531823    -0.81600
H2041       H  0.65748705  0.84982093  0.20810461     0.17500
C2042       C  0.58570537  0.88934640  0.12608419    -0.26500
C2043       C  0.56805330  0.90679346  0.10944474     0.35600
C2044       C  0.58162937  0.92121400  0.08571566    -0.20500
C2045       C  0.61214454  0.91700100  0.07844244    -0.25700
C2046       C  0.62962114  0.89945675  0.09486588     0.26900
H2047       H  0.57542023  0.87822238  0.14422828     0.12700
N2048       N  0.53645025  0.90961352  0.11636039    -0.83000
H2049       H  0.62270368  0.92782433  0.06021297     0.17500
N2050       N  0.66094070  0.89576636  0.08723998    -0.81600
H2051       H  0.53021904  0.89785610  0.13464071     0.33200
H2052       H  0.52429137  0.90325231  0.09729985     0.37700
H2053       H  0.66718754  0.90718621  0.06866242     0.33100
H2054       H  0.67380851  0.90180535  0.10596386     0.29800
H2055       H  0.62958023  0.88668771  0.20866520     0.33100
H2056       H  0.63506299  0.90525770  0.17791258     0.29800
H2057       H  0.66740377  0.79065078  0.12444673     0.37700
H2058       H  0.67367729  0.80960064  0.09422885     0.33200
C2059       C  0.90918840  0.57284977  0.08503440    -0.20600
C2060       C  0.91045610  0.57476194  0.11735968     0.35700
C2061       C  0.89293372  0.59320618  0.13235701    -0.26500
C2062       C  0.87408815  0.60952848  0.11582618     0.02100
C2063       C  0.87237985  0.60749303  0.08370676     0.26900
C2064       C  0.88978845  0.58898980  0.06861735    -0.25700
N2065       N  0.92919522  0.55787229  0.13490862    -0.83100
H2066       H  0.89404589  0.59500364  0.15707675     0.12700
C2067       C  0.85761018  0.62959941  0.13249804     0.02100
N2068       N  0.85370889  0.62471154  0.06655051    -0.81600
H2069       H  0.88870553  0.58754327  0.04387087     0.17500
C2070       C  0.87210723  0.65289719  0.13755298    -0.26500
C2071       C  0.85784770  0.67227454  0.15425469     0.35600
C2072       C  0.82846406  0.66821165  0.16580232    -0.20500
C2073       C  0.81379662  0.64497857  0.16049029    -0.25700
C2074       C  0.82836009  0.62537473  0.14428559     0.26900
H2075       H  0.89467689  0.65586547  0.12853447     0.12700
N2076       N  0.87289691  0.69616061  0.15924817    -0.83000
H2077       H  0.79124536  0.64199208  0.16953942     0.17500
N2078       N  0.81401975  0.60104130  0.14046224    -0.81600
H2079       H  0.89445656  0.69599142  0.14940883     0.33200
H2080       H  0.86060080  0.71018693  0.14776222     0.37700
H2081       H  0.79282487  0.60089044  0.15108838     0.33100
H2082       H  0.81018535  0.59832635  0.11706462     0.29800
H2083       H  0.85544792  0.62099718  0.04307325     0.33100
H2084       H  0.83122360  0.62123333  0.07261409     0.29800
H2085       H  0.92039054  0.53952909  0.13242563     0.37700
H2086       H  0.92794050  0.56221069  0.15826038     0.33200
C2087       C  0.83855542  0.82990801  0.32717844    -0.20600
C2088       C  0.82394660  0.85039679  0.34184695     0.35700
C2089       C  0.84138306  0.86873909  0.35721929    -0.26500
C2090       C  0.87295672  0.86679428  0.35832121     0.02100
C2091       C  0.88755132  0.84617042  0.34401289     0.26900
C2092       C  0.87018341  0.82813738  0.32808032    -0.25700
N2093       N  0.79156145  0.85254668  0.34093267    -0.83100
H2094       H  0.83037276  0.88453633  0.36858024     0.12700
C2095       C  0.89030988  0.88595762  0.37572283     0.02100
N2096       N  0.91969449  0.84296336  0.34699640    -0.81600
H2097       H  0.88127962  0.81211720  0.31727654     0.17500
C2098       C  0.89237160  0.88352538  0.40762459    -0.26500
C2099       C  0.90819709  0.90154279  0.42518540     0.35600
C2100       C  0.92238944  0.92222779  0.41037633    -0.20500
C2101       C  0.92047242  0.92450994  0.37838075    -0.25700
C2102       C  0.90408284  0.90677539  0.36090078     0.26900
H2103       H  0.88150018  0.86753482  0.41880108     0.12700
N2104       N  0.91014315  0.89880428  0.45790788    -0.83000
H2105       H  0.93090848  0.94066460  0.36713480     0.17500
N2106       N  0.90019869  0.91044091  0.32847318    -0.81600
H2107       H  0.89832535  0.88265828  0.46517565     0.33200
H2108       H  0.93284921  0.89577344  0.46340559     0.37700
H2109       H  0.91094156  0.92714868  0.32134849     0.33100
H2110       H  0.91095665  0.89554809  0.31705347     0.29800
H2111       H  0.92669281  0.82629547  0.33605430     0.33100
H2112       H  0.93034964  0.85794700  0.33558987     0.29800
H2113       H  0.78530832  0.85536789  0.31808323     0.37700
H2114       H  0.78439621  0.86860266  0.35303474     0.33200
C2115       C  0.91680111  0.57715140  0.41366029    -0.20600
C2116       C  0.88512310  0.57539998  0.41015018     0.35700
C2117       C  0.86973227  0.59447891  0.39399632    -0.26500
C2118       C  0.88537826  0.61513130  0.38140008     0.02100
C2119       C  0.91695760  0.61699298  0.38491630     0.26900
C2120       C  0.93246114  0.59774186  0.40073636    -0.25700
N2121       N  0.86879058  0.55408019  0.42252202    -0.83100
H2122       H  0.84544042  0.59327594  0.39113187     0.12700
C2123       C  0.86817784  0.63493899  0.36507583     0.02100
N2124       N  0.93293989  0.63876059  0.37322721    -0.81600
H2125       H  0.95674013  0.59907709  0.40360266     0.17500
C2126       C  0.85522042  0.65477293  0.38195241    -0.26500
C2127       C  0.83856597  0.67397656  0.36732685     0.35600
C2128       C  0.83496432  0.67318820  0.33517744    -0.20500
C2129       C  0.84794676  0.65324356  0.31837132    -0.25700
C2130       C  0.86419649  0.63385508  0.33309149     0.26900
H2131       H  0.85830560  0.65529901  0.40658313     0.12700
N2132       N  0.82592852  0.69450099  0.38489152    -0.83000
H2133       H  0.84497441  0.65259385  0.29373252     0.17500
N2134       N  0.87593668  0.61274253  0.31588788    -0.81600
H2135       H  0.83040637  0.69204678  0.40822794     0.33200
H2136       H  0.83698423  0.71120537  0.37825284     0.37700
H2137       H  0.87038848  0.61452738  0.29270105     0.33100
H2138       H  0.89950050  0.61335278  0.31715368     0.29800
H2139       H  0.95595819  0.63749175  0.37839749     0.33100
H2140       H  0.93128987  0.63852046  0.34935046     0.29800
H2141       H  0.87604171  0.53781458  0.41088415     0.37700
H2142       H  0.84565907  0.55583886  0.41814330     0.33200
C2143       C  0.67227939  0.83401932  0.33137877    -0.20600
C2144       C  0.64089400  0.83823776  0.32750647     0.35700
C2145       C  0.62678933  0.85783655  0.34388362    -0.26500
C2146       C  0.64323049  0.87374132  0.36347785     0.02100
C2147       C  0.67458178  0.86991862  0.36703490     0.26900
C2148       C  0.68874779  0.84994477  0.35112824    -0.25700
N2149       N  0.62310062  0.82217238  0.30786232    -0.83100
H2150       H  0.60262620  0.86060361  0.34159760     0.12700
C2151       C  0.62670434  0.89354567  0.38093112     0.02500
N2152       N  0.69183177  0.88629565  0.38677821    -0.81600
H2153       H  0.71278349  0.84687347  0.35406583     0.17500
C2154       C  0.62757511  0.89316170  0.41305538    -0.26500
C2155       C  0.61011356  0.91014346  0.43048019     0.35600
C2156       C  0.59124337  0.92777124  0.41537745    -0.20500
C2157       C  0.59052333  0.92822752  0.38321339    -0.25700
C2158       C  0.60837651  0.91153253  0.36582454     0.26900
H2159       H  0.64132109  0.87907047  0.42457483     0.12700
N2160       N  0.61095660  0.90910869  0.46339465    -0.83000
H2161       H  0.57639628  0.94198123  0.37157876     0.17500
N2162       N  0.60809511  0.91278291  0.33289892    -0.81600
H2163       H  0.62621703  0.89526164  0.47082037     0.33200
H2164       H  0.58958463  0.90335602  0.47096909     0.37700
H2165       H  0.59340270  0.92701537  0.32536714     0.33100
H2166       H  0.62977225  0.91807187  0.32573196     0.29800
H2167       H  0.71455739  0.88087195  0.38696715     0.33100
H2168       H  0.69108147  0.90460800  0.37749908     0.29800
H2169       H  0.62881760  0.82669170  0.28525243     0.37700
H2170       H  0.60009534  0.82632849  0.31006695     0.33200
C2171       C  0.91475741  0.91939403  0.07881295    -0.20600
C2172       C  0.88288316  0.91793937  0.07721842     0.35700
C2173       C  0.86768165  0.89872305  0.09342715    -0.26500
C2174       C  0.88362795  0.88108520  0.11112848     0.02100
C2175       C  0.91547821  0.88187540  0.11185136     0.26900
C2176       C  0.93071442  0.90132595  0.09602512    -0.25700
N2177       N  0.86598967  0.93632527  0.05991846    -0.83100
H2178       H  0.84322147  0.89769995  0.09271352     0.12700
C2179       C  0.86644317  0.86182878  0.12857810     0.02100
N2180       N  0.93221397  0.86243716  0.12759913    -0.81600
H2181       H  0.95518040  0.90220453  0.09678090     0.17500
C2182       C  0.85434300  0.84089108  0.11297825    -0.26500
C2183       C  0.83743233  0.82234547  0.12861996     0.35600
C2184       C  0.83312589  0.82469078  0.16054483    -0.20500
C2185       C  0.84487977  0.84584964  0.17604870    -0.25700
C2186       C  0.86081852  0.86488001  0.16018241     0.26900
H2187       H  0.85815909  0.83905976  0.08853744     0.12700
N2188       N  0.82507876  0.80096999  0.11233643    -0.83000
H2189       H  0.84090670  0.84782700  0.20044786     0.17500
N2190       N  0.86989746  0.88781282  0.17562597    -0.81600
H2191       H  0.82998762  0.80229733  0.08894453     0.33200
H2192       H  0.83591960  0.78462403  0.12034788     0.37700
H2193       H  0.86292256  0.88744743  0.19852763     0.33100
H2194       H  0.89345859  0.88861552  0.17591777     0.29800
H2195       H  0.95545538  0.86540032  0.12501180     0.33100
H2196       H  0.92771379  0.86390913  0.15100986     0.29800
H2197       H  0.86881681  0.95396672  0.07058604     0.37700
H2198       H  0.84286829  0.93222874  0.06074149     0.33200
N2199       N  0.96779216  0.97187463  0.93997897    -0.06800
N2200       N  0.96327702  0.95449096  0.91859763    -0.58900
N2201       N  0.94433542  0.52889106  0.96236022    -0.06500
N2202       N  0.92324745  0.54579043  0.95608426    -0.61100
N2203       N  0.96629464  0.53011086  0.94205419    -0.06100
N2204       N  0.96069254  0.54804549  0.92164611    -0.58900
N2205       N  0.94631906  0.97072452  0.96083672    -0.05800
N2206       N  0.92699504  0.95237470  0.95430755    -0.61400
C2207       C  0.93794041  0.94230646  0.92804311     0.95400
C2208       C  0.93378662  0.55765759  0.93075138     0.95100
N2209       N  0.96129793  0.52733155  0.55712750    -0.07000
N2210       N  0.95363015  0.54376774  0.57859711    -0.59500
N2211       N  0.94301535  0.96945366  0.53296461    -0.05100
N2212       N  0.92272865  0.95138726  0.53714730    -0.60800
N2213       N  0.96308246  0.96922701  0.55517493    -0.07000
N2214       N  0.95694887  0.95085670  0.57485867    -0.59800
N2215       N  0.94135737  0.52751025  0.53477916    -0.04800
N2216       N  0.91980344  0.54417152  0.54056013    -0.60900
Mn2217     Mn  0.94303550  0.99916014  0.49768178     1.18400
C2218       C  0.92774337  0.55418470  0.56797156     0.97400
C2219       C  0.93172988  0.93988701  0.56328361     0.98100
N2220       N  0.53767454  0.53147556  0.94550670    -0.07100
N2221       N  0.54351998  0.54986630  0.92583059    -0.63400
N2222       N  0.55934296  0.97325966  0.96551941    -0.05900
N2223       N  0.58072587  0.95642430  0.95990826    -0.64000
N2224       N  0.53949003  0.97352289  0.94308852    -0.06600
N2225       N  0.54710900  0.95699287  0.92167553    -0.63600
N2226       N  0.55758351  0.53159607  0.96790078    -0.05500
N2227       N  0.57722976  0.55027616  0.96402227    -0.64300
Mn2228     Mn  0.50287382  0.50175771  0.94180109     1.10700
C2229       C  0.56803249  0.56159422  0.93777978     0.98700
C2230       C  0.57271099  0.94628169  0.93261463     0.98700
N2231       N  0.53417437  0.97054263  0.55844845    -0.06600
N2232       N  0.53898986  0.95217944  0.57847787    -0.61900
N2233       N  0.55506520  0.52935240  0.54017195    -0.05900
N2234       N  0.57520253  0.54684381  0.54749516    -0.58700
N2235       N  0.53287631  0.52899597  0.56027830    -0.07200
N2236       N  0.53730242  0.54650662  0.58154192    -0.61500
N2237       N  0.55599862  0.97122608  0.53797645    -0.06200
N2238       N  0.57611241  0.95335910  0.54372013    -0.58700
Mn2239     Mn  0.49785052  0.49906587  0.55860162     1.20200
Mn2240     Mn  0.55782841  0.50133409  0.50291776     1.10100
Cl2241     Cl  0.50040657  0.50034056  0.50024759    -0.86700
C2242       C  0.56513588  0.94144656  0.56892701     0.95700
C2243       C  0.56368471  0.55755891  0.57310237     0.95500
N2244       N  0.78563105  0.77657028  0.69012213    -0.06800
N2245       N  0.79089578  0.79380103  0.66876842    -0.58900
N2246       N  0.80514584  0.71865892  0.71335328    -0.06500
N2247       N  0.82465563  0.70028538  0.70767865    -0.61100
N2248       N  0.78310055  0.71825605  0.69312929    -0.06100
N2249       N  0.78695266  0.69943046  0.67349825    -0.58900
N2250       N  0.80708252  0.77702609  0.71096566    -0.05800
N2251       N  0.82723109  0.79476096  0.70443069    -0.61400
C2252       C  0.81680736  0.80505221  0.67809470     0.95400
C2253       C  0.81282623  0.68833299  0.68299884     0.95100
N2254       N  0.78772323  0.72245813  0.80807840    -0.07000
N2255       N  0.79370360  0.70541789  0.82944458    -0.59500
N2256       N  0.80971616  0.77914562  0.78306433    -0.05100
N2257       N  0.83060451  0.79679668  0.78695121    -0.60800
N2258       N  0.78912350  0.78063678  0.80476855    -0.07000
N2259       N  0.79539100  0.79947129  0.82369333    -0.59800
N2260       N  0.80763602  0.72099140  0.78571842    -0.04800
N2261       N  0.82739927  0.70280951  0.79126695    -0.60900
Mn2262     Mn  0.80828323  0.74890320  0.74822671     1.18400
C2263       C  0.81842526  0.69325814  0.81857516     0.97400
C2264       C  0.82119035  0.80946784  0.81218548     0.98100
N2265       N  0.71204787  0.72044722  0.69534487    -0.07100
N2266       N  0.70532376  0.70210848  0.67589066    -0.63400
N2267       N  0.69440374  0.77996708  0.71522749    -0.05900
N2268       N  0.67541443  0.79888345  0.71041018    -0.64000
N2269       N  0.71448028  0.77872094  0.69302590    -0.06600
N2270       N  0.70939380  0.79661727  0.67247743    -0.63600
N2271       N  0.69193852  0.72140665  0.71751941    -0.05500
N2272       N  0.67117167  0.70362798  0.71369443    -0.64300
Mn2273     Mn  0.74877643  0.74845162  0.69198819     1.10700
C2274       C  0.67992098  0.69163150  0.68772381     0.98700
C2275       C  0.68503685  0.80910290  0.68367803     0.98700
N2276       N  0.71794212  0.78230979  0.80741684    -0.06600
N2277       N  0.71359416  0.80149086  0.82650698    -0.61900
N2278       N  0.69451123  0.72362978  0.78969233    -0.05900
N2279       N  0.67407606  0.70620611  0.79643607    -0.58700
N2280       N  0.71626962  0.72367298  0.81022175    -0.07200
N2281       N  0.71118437  0.70608071  0.83122313    -0.61500
N2282       N  0.69640308  0.78170235  0.78672526    -0.06200
N2283       N  0.67700918  0.80027065  0.79128271    -0.58700
Mn2284     Mn  0.75278128  0.75230699  0.80860747     1.20200
Mn2285     Mn  0.69345825  0.75163214  0.75231453     1.10100
Cl2286     Cl  0.75084812  0.75026934  0.75030332    -0.86700
C2287       C  0.68789382  0.81254257  0.81610464     0.95700
C2288       C  0.68488621  0.69522964  0.82221556     0.95500
C2289       C  0.66254999  0.67123484  0.67239931    -0.20600
C2290       C  0.64403987  0.65414019  0.68895378     0.35700
C2291       C  0.62784690  0.63527800  0.67301704    -0.26500
C2292       C  0.62973102  0.63336427  0.64103543     0.02100
C2293       C  0.64758737  0.65077568  0.62442893     0.26900
C2294       C  0.66415990  0.66930504  0.64034136    -0.25700
N2295       N  0.64200512  0.65577673  0.72178181    -0.83100
H2296       H  0.61380103  0.62193060  0.68551912     0.12700
C2297       C  0.61258117  0.61325224  0.62501759     0.02100
N2298       N  0.64786343  0.65020888  0.59145738    -0.81600
H2299       H  0.67786730  0.68270900  0.62755108     0.17500
C2300       C  0.58185603  0.61705928  0.61867163    -0.26500
C2301       C  0.56520023  0.59890902  0.60205835     0.35600
C2302       C  0.57982750  0.57684795  0.59134062    -0.20500
C2303       C  0.61044566  0.57290079  0.59814878    -0.25700
C2304       C  0.62686247  0.59066704  0.61548476     0.26900
H2305       H  0.57101761  0.63437855  0.62638264     0.12700
N2306       N  0.53376435  0.60301945  0.59546243    -0.83000
H2307       H  0.62139411  0.55563616  0.59041121     0.17500
N2308       N  0.65755465  0.58547879  0.62435293    -0.81600
H2309       H  0.52643051  0.62012760  0.60510800     0.33200
H2310       H  0.53160390  0.60496072  0.57171487     0.37700
H2311       H  0.66432276  0.56766936  0.61624922     0.33100
H2312       H  0.67164764  0.59881981  0.61384275     0.29800
H2313       H  0.66132819  0.66489282  0.58276566     0.33100
H2314       H  0.65794774  0.63325906  0.58442383     0.29800
H2315       H  0.66333437  0.65153537  0.73070338     0.37700
H2316       H  0.62715963  0.64200216  0.73032723     0.33200
C2317       C  0.58474163  0.58200411  0.92179968    -0.20600
C2318       C  0.59988117  0.60153691  0.93782315     0.35700
C2319       C  0.61550019  0.62036786  0.92119332    -0.26500
C2320       C  0.61663820  0.61967541  0.88906859     0.02100
C2321       C  0.60251292  0.59962375  0.87314981     0.26900
C2322       C  0.58612734  0.58132279  0.88967419    -0.25700
N2323       N  0.59919100  0.60227728  0.97075331    -0.83100
H2324       H  0.62695676  0.63559042  0.93325181     0.12700
C2325       C  0.63390969  0.63941350  0.87242562     0.02100
N2326       N  0.60622877  0.59713371  0.84052092    -0.81600
H2327       H  0.57518387  0.56593106  0.87744184     0.17500
C2328       C  0.66548246  0.63756288  0.87113757    -0.26500
C2329       C  0.68285494  0.65578306  0.85536908     0.35600
C2330       C  0.66809747  0.67583993  0.83995018    -0.20500
C2331       C  0.63645789  0.67763869  0.84137705    -0.25700
C2332       C  0.61921528  0.65992569  0.85800745     0.26900
H2333       H  0.67655678  0.62183630  0.88255631     0.12700
N2334       N  0.71520150  0.65343355  0.85411776    -0.83000
H2335       H  0.62519114  0.69331106  0.83004800     0.17500
N2336       N  0.58711626  0.66331843  0.86139712    -0.81600
H2337       H  0.72214702  0.63667003  0.86486520     0.33200
H2338       H  0.72437660  0.66830091  0.86700274     0.37700
H2339       H  0.58009341  0.67987325  0.85023542     0.33100
H2340       H  0.57612786  0.64827108  0.85050279     0.29800
H2341       H  0.59552392  0.58066818  0.83260228     0.33100
H2342       H  0.59539562  0.61236258  0.82989143     0.29800
H2343       H  0.57679994  0.60534447  0.97746897     0.37700
H2344       H  0.61173208  0.61771363  0.97892442     0.33200
C2345       C  0.66848598  0.82914199  0.66697556    -0.20600
C2346       C  0.66495884  0.82794463  0.63486860     0.35700
C2347       C  0.64769670  0.84651500  0.61992869    -0.26500
C2348       C  0.63412310  0.86641401  0.63625484     0.02100
C2349       C  0.63785439  0.86781865  0.66833757     0.26900
C2350       C  0.65474200  0.84894329  0.68344732    -0.25700
N2351       N  0.67811342  0.80746481  0.61761647    -0.83100
H2352       H  0.64445385  0.84531754  0.59535633     0.12700
C2353       C  0.61636256  0.88564259  0.61909083     0.02100
N2354       N  0.62472014  0.88845997  0.68531959    -0.81600
H2355       H  0.65748699  0.84981671  0.70810508     0.17500
C2356       C  0.58571402  0.88934930  0.62608489    -0.26500
C2357       C  0.56806072  0.90679517  0.60944510     0.35600
C2358       C  0.58163576  0.92121656  0.58571631    -0.20500
C2359       C  0.61215147  0.91700527  0.57844340    -0.25700
C2360       C  0.62962914  0.89946135  0.59486649     0.26900
H2361       H  0.57542939  0.87822459  0.64422865     0.12700
N2362       N  0.53645716  0.90961278  0.61635970    -0.83000
H2363       H  0.62270985  0.92782911  0.56021392     0.17500
N2364       N  0.66094848  0.89577118  0.58723943    -0.81600
H2365       H  0.53022663  0.89785491  0.63463984     0.33200
H2366       H  0.52429964  0.90325056  0.59729878     0.37700
H2367       H  0.66719452  0.90719108  0.56866164     0.33100
H2368       H  0.67381696  0.90181011  0.60596285     0.29800
H2369       H  0.62958626  0.88668675  0.70866681     0.33100
H2370       H  0.63507458  0.90525811  0.67791642     0.29800
H2371       H  0.66740534  0.79065272  0.62444058     0.37700
H2372       H  0.67368457  0.80960488  0.59422598     0.33200
C2373       C  0.90919546  0.57285278  0.58503493    -0.20600
C2374       C  0.91046330  0.57476248  0.61736050     0.35700
C2375       C  0.89294216  0.59320633  0.63235988    -0.26500
C2376       C  0.87409811  0.60953103  0.61583084     0.02100
C2377       C  0.87239129  0.60749935  0.58371094     0.26900
C2378       C  0.88979804  0.58899601  0.56861949    -0.25700
N2379       N  0.92920125  0.55787064  0.63490769    -0.83100
H2380       H  0.89405382  0.59500138  0.65707990     0.12700
C2381       C  0.85762000  0.62960040  0.63250512     0.02100
N2382       N  0.85372449  0.62472220  0.56655631    -0.81600
H2383       H  0.88871582  0.58755190  0.54387277     0.17500
C2384       C  0.87212051  0.65289487  0.63757172    -0.26500
C2385       C  0.85785906  0.67227159  0.65427265     0.35600
C2386       C  0.82847011  0.66821137  0.66580785    -0.20500
C2387       C  0.81380000  0.64498113  0.66048560    -0.25700
C2388       C  0.82836523  0.62537776  0.64428182     0.26900
H2389       H  0.89469388  0.65586137  0.62856196     0.12700
N2390       N  0.87291146  0.69615469  0.65927699    -0.83000
H2391       H  0.79124504  0.64199638  0.66952605     0.17500
N2392       N  0.81402179  0.60104662  0.64044899    -0.81600
H2393       H  0.89447480  0.69598370  0.64944611     0.33200
H2394       H  0.86062271  0.71018454  0.64778914     0.37700
H2395       H  0.79282366  0.60089689  0.65106845     0.33100
H2396       H  0.81019396  0.59833526  0.61704969     0.29800
H2397       H  0.85546496  0.62101074  0.54307849     0.33100
H2398       H  0.83123810  0.62124594  0.57261713     0.29800
H2399       H  0.92039513  0.53952810  0.63242308     0.37700
H2400       H  0.92794719  0.56220762  0.65825989     0.33200
C2401       C  0.83855613  0.82990649  0.82718279    -0.20600
C2402       C  0.82394683  0.85039391  0.84185362     0.35700
C2403       C  0.84138260  0.86873451  0.85722942    -0.26500
C2404       C  0.87295605  0.86678933  0.85833255     0.02100
C2405       C  0.88755125  0.84616637  0.84402303     0.26900
C2406       C  0.87018403  0.82813501  0.82808683    -0.25700
N2407       N  0.79156177  0.85254437  0.84093778    -0.83100
H2408       H  0.83037198  0.88453114  0.86859127     0.12700
C2409       C  0.89030873  0.88595349  0.87573292     0.02100
N2410       N  0.91969417  0.84295878  0.84700847    -0.81600
H2411       H  0.88128054  0.81211559  0.81728173     0.17500
C2412       C  0.89237121  0.88352270  0.90763476    -0.26500
C2413       C  0.90819631  0.90154146  0.92519380     0.35600
C2414       C  0.92238791  0.92222579  0.91038266    -0.20500
C2415       C  0.92046942  0.92450682  0.87838716    -0.25700
C2416       C  0.90407985  0.90677118  0.86090908     0.26900
H2417       H  0.88150061  0.86753242  0.91881261     0.12700
N2418       N  0.91014236  0.89880524  0.95791658    -0.83000
H2419       H  0.93090432  0.94066136  0.86713986     0.17500
N2420       N  0.90019395  0.91043530  0.82848146    -0.81600
H2421       H  0.89832483  0.88265957  0.96518599     0.33200
H2422       H  0.93284843  0.89577522  0.96341473     0.37700
H2423       H  0.91093543  0.92714326  0.82135530     0.33100
H2424       H  0.91095230  0.89554246  0.81706214     0.29800
H2425       H  0.92669308  0.82629190  0.83606453     0.33100
H2426       H  0.93035038  0.85794353  0.83560501     0.29800
H2427       H  0.78531006  0.85536818  0.81808841     0.37700
H2428       H  0.78439610  0.86859910  0.85304199     0.33200
C2429       C  0.91679742  0.57715165  0.91366579    -0.20600
C2430       C  0.88511995  0.57539748  0.91015218     0.35700
C2431       C  0.86972828  0.59447531  0.89399697    -0.26500
C2432       C  0.88537304  0.61512903  0.88140216     0.02100
C2433       C  0.91695181  0.61699325  0.88492174     0.26900
C2434       C  0.93245605  0.59774380  0.90074413    -0.25700
N2435       N  0.86878903  0.55407571  0.92252124    -0.83100
H2436       H  0.84543686  0.59327027  0.89113001     0.12700
C2437       C  0.86817231  0.63493607  0.86507661     0.02100
N2438       N  0.93293294  0.63876131  0.87323230    -0.81600
H2439       H  0.95673459  0.59908110  0.90361294     0.17500
C2440       C  0.85521641  0.65477135  0.88195197    -0.26500
C2441       C  0.83856476  0.67397606  0.86732523     0.35600
C2442       C  0.83496423  0.67318765  0.83517570    -0.20500
C2443       C  0.84794510  0.65324163  0.81837055    -0.25700
C2444       C  0.86419209  0.63385196  0.83309206     0.26900
H2445       H  0.85830106  0.65529789  0.90658274     0.12700
N2446       N  0.82592918  0.69450187  0.88488893    -0.83000
H2447       H  0.84497363  0.65259181  0.79373165     0.17500
N2448       N  0.87593118  0.61273837  0.81588956    -0.81600
H2449       H  0.83040573  0.69204763  0.90822560     0.33200
H2450       H  0.83698725  0.71120518  0.87825032     0.37700
H2451       H  0.87038461  0.61452340  0.79270232     0.33100
H2452       H  0.89949499  0.61334695  0.81715702     0.29800
H2453       H  0.95595087  0.63749440  0.87840478     0.33100
H2454       H  0.93128503  0.63851941  0.84935535     0.29800
H2455       H  0.87604398  0.53781112  0.91088372     0.37700
H2456       H  0.84565782  0.55583207  0.91813956     0.33200
C2457       C  0.67228084  0.83402003  0.83137791    -0.20600
C2458       C  0.64089557  0.83823963  0.82750685     0.35700
C2459       C  0.62679251  0.85783893  0.84388467    -0.26500
C2460       C  0.64323514  0.87374313  0.86347843     0.02100
C2461       C  0.67458628  0.86991903  0.86703459     0.26900
C2462       C  0.68875068  0.84994481  0.85112707    -0.25700
N2463       N  0.62310073  0.82217494  0.80786327    -0.83100
H2464       H  0.60262944  0.86060687  0.84159951     0.12700
C2465       C  0.62671048  0.89354844  0.88093177     0.02500
N2466       N  0.69183776  0.88629489  0.88677796    -0.81600
H2467       H  0.71278629  0.84687258  0.85406393     0.17500
C2468       C  0.62758196  0.89316519  0.91305603    -0.26500
C2469       C  0.61011992  0.91014675  0.93048073     0.35600
C2470       C  0.59124780  0.92777315  0.91537784    -0.20500
C2471       C  0.59052825  0.92822949  0.88321381    -0.25700
C2472       C  0.60838253  0.91153520  0.86582515     0.26900
H2473       H  0.64132857  0.87907447  0.92457562     0.12700
N2474       N  0.61096446  0.90911309  0.96339521    -0.83000
H2475       H  0.57640052  0.94198263  0.87157905     0.17500
N2476       N  0.60810198  0.91278605  0.83289955    -0.81600
H2477       H  0.62622650  0.89526728  0.97082095     0.33200
H2478       H  0.58959335  0.90335935  0.97097090     0.37700
H2479       H  0.59340957  0.92701850  0.82536767     0.33100
H2480       H  0.62977922  0.91807538  0.82573337     0.29800
H2481       H  0.71456302  0.88087013  0.88696629     0.33100
H2482       H  0.69108849  0.90460746  0.87749937     0.29800
H2483       H  0.62881768  0.82669371  0.78525323     0.37700
H2484       H  0.60009579  0.82633225  0.81006825     0.33200
C2485       C  0.91475292  0.91939482  0.57880974    -0.20600
C2486       C  0.88287997  0.91792866  0.57720017     0.35700
C2487       C  0.86768035  0.89871061  0.59340791    -0.26500
C2488       C  0.88362699  0.88108210  0.61112254     0.02100
C2489       C  0.91547651  0.88188298  0.61185962     0.26900
C2490       C  0.93071045  0.90133542  0.59603476    -0.25700
N2491       N  0.86598524  0.93630428  0.55988561    -0.83100
H2492       H  0.84322099  0.89767903  0.59268318     0.12700
C2493       C  0.86644314  0.86182494  0.62857205     0.02100
N2494       N  0.93221475  0.86245306  0.62761965    -0.81600
H2495       H  0.95517569  0.90222199  0.59680168     0.17500
C2496       C  0.85435413  0.84088148  0.61297432    -0.26500
C2497       C  0.83744221  0.82233632  0.62861563     0.35600
C2498       C  0.83312362  0.82468791  0.66053806    -0.20500
C2499       C  0.84486681  0.84585203  0.67603966    -0.25700
C2500       C  0.86080623  0.86488194  0.66017336     0.26900
H2501       H  0.85817935  0.83904562  0.58853546     0.12700
N2502       N  0.82509934  0.80095526  0.61233444    -0.83000
H2503       H  0.84088455  0.84783382  0.70043676     0.17500
N2504       N  0.86987250  0.88782011  0.67561305    -0.81600
H2505       H  0.83001679  0.80227808  0.58894401     0.33200
H2506       H  0.83594064  0.78461276  0.62035548     0.37700
H2507       H  0.86288876  0.88745846  0.69851203     0.33100
H2508       H  0.89343322  0.88862791  0.67591423     0.29800
H2509       H  0.95545587  0.86542346  0.62504172     0.33100
H2510       H  0.92770414  0.86392731  0.65102808     0.29800
H2511       H  0.86879724  0.95394907  0.57054925     0.37700
H2512       H  0.84286568  0.93219899  0.56069777     0.33200
loop_ 
_geom_bond_atom_site_label_1 
_geom_bond_atom_site_label_2 
_geom_bond_distance 
_geom_bond_site_symmetry_2 
_ccdc_geom_bond_type 
N1            N2   1.322       .  A
N1            N7   1.316       .  A
N1        Mn1914   2.209       .  S
N2            C9   1.354       .  A
N3            N5   1.316       .  A
N3            N4   1.319       .  A
N3         Mn961   2.197   1_545  S
N4           C10   1.351       .  A
N5            N6   1.321       .  A
N5        Mn1286   2.202       .  S
N6           C10   1.353       .  A
N7            N8   1.320       .  A
N7         Mn333   2.201       .  S
N8            C9   1.352       .  A
C9          C216   1.477       .  S
C10         C231   1.475       .  S
N11          N17   1.316       .  A
N11          N12   1.319       .  A
N11       Mn1297   2.200   1_545  S
N12          C20   1.353       .  A
N13          N14   1.319       .  A
N13          N15   1.315       .  A
N13         Mn19   2.194   1_554  S
N14          C21   1.352       .  A
N15          N16   1.320       .  A
N15       Mn1925   2.201       .  S
N16          C21   1.354       .  A
N17          N18   1.320       .  A
N17        Mn647   2.202   1_544  S
N18          C20   1.353       .  A
Mn19        N945   2.197       .  S
Mn19        N321   2.201       .  S
Mn19        N645   2.202   1_556  S
Mn19      Cl1927   2.541   1_556  S
C20         C175   1.481       .  S
C21         C287   1.477       .  S
N22          N23   1.318       .  A
N22          N28   1.316       .  A
N22         Mn30   2.199       .  S
N23          C31   1.352       .  A
N24          N26   1.316       .  A
N24          N25   1.320       .  A
N24        Mn984   2.202       .  S
N25          C32   1.353       .  A
N26          N27   1.320       .  A
N26        Mn658   2.201       .  S
N27          C32   1.353       .  A
N28          N29   1.322       .  A
N28        Mn356   2.206       .  S
N29          C31   1.354       .  A
Mn30       N1885   2.209   1_445  S
Mn30       N1261   2.202   1_455  S
Mn30        N654   2.201   1_545  S
Mn30       Cl357   2.553       .  S
C31         C119   1.477       .  S
C32         C272   1.479       .  S
N33          N34   1.320       .  A
N33          N39   1.315       .  A
N33        Mn669   2.200   1_455  S
N34          C44   1.353       .  A
N35          N36   1.319       .  A
N35          N37   1.316       .  A
N35         Mn42   2.198       .  S
N36          C45   1.351       .  A
N37          N38   1.322       .  A
N37         Mn41   2.209   1_445  S
N38          C45   1.354       .  A
N39          N40   1.320       .  A
N39        Mn670   2.203       .  S
N40          C44   1.355       .  A
Mn41       N1267   2.200   1_565  S
Mn41       N1899   2.201       .  S
Mn41        N661   2.201   1_655  S
Mn41        Cl43   2.549   1_665  S
Mn42        N966   2.202   1_544  S
Mn42        N342   2.206   1_554  S
Mn42        N667   2.203   1_545  S
Mn42        Cl43   2.544       .  S
Cl43      Mn1903   2.541   1_444  S
Cl43       Mn344   2.553   1_554  S
C44         C160   1.485       .  S
C45         C104   1.474       .  S
N46          N47   1.320       .  A
N46          N52   1.315       .  A
N46         Mn75   2.201       .  S
N47          C54   1.352       .  A
N48          N50   1.316       .  A
N48          N49   1.320       .  A
N48         Mn64   2.206       .  S
N49          C55   1.353       .  A
N50          N51   1.321       .  A
N50         Mn75   2.200       .  S
N51          C55   1.351       .  A
N52          N53   1.320       .  A
N52         Mn64   2.199       .  S
N53          C54   1.352       .  A
C54         C300   1.473       .  S
C55         C188   1.471       .  S
N56          N62   1.316       .  A
N56          N57   1.321       .  A
N56         Mn86   2.206       .  S
N57          C65   1.353       .  A
N58          N59   1.320       .  A
N58          N60   1.316       .  A
N58         Mn64   2.201       .  S
N59          C66   1.353       .  A
N60          N61   1.319       .  A
N60         Mn86   2.197       .  S
N61          C66   1.352       .  A
N62          N63   1.320       .  A
N62         Mn64   2.198       .  S
N63          C65   1.352       .  A
Mn64        Cl88   2.544       .  S
C65         C244   1.476       .  S
C66         C203   1.474       .  S
N67          N68   1.319       .  A
N67          N73   1.315       .  A
N67         Mn75   2.196       .  S
N68          C76   1.353       .  A
N69          N71   1.315       .  A
N69          N70   1.320       .  A
N69         Mn87   2.200       .  S
N70          C77   1.352       .  A
N71          N72   1.320       .  A
N71         Mn75   2.202       .  S
N72          C77   1.354       .  A
N73          N74   1.321       .  A
N73         Mn87   2.200       .  S
N74          C76   1.354       .  A
Mn75        Cl88   2.548       .  S
C76          C91   1.479       .  S
C77         C147   1.477       .  S
N78          N79   1.323       .  A
N78          N84   1.314       .  A
N78         Mn86   2.209       .  S
N79          C89   1.357       .  A
N80          N81   1.319       .  A
N80          N82   1.316       .  A
N80         Mn87   2.198       .  S
N81          C90   1.353       .  A
N82          N83   1.321       .  A
N82         Mn86   2.208       .  S
N83          C90   1.354       .  A
N84          N85   1.316       .  A
N84         Mn87   2.185       .  S
N85          C89   1.350       .  A
Mn86        Cl88   2.548       .  S
Mn87        Cl88   2.542       .  S
C89         C259   1.483       .  S
C90         C132   1.479       .  S
C91          C92   1.413       .  A
C91          C96   1.404       .  A
C92          C93   1.407       .  A
C92          N97   1.438       .  S
C93          C94   1.401       .  A
C93          H98   1.084       .  S
C94          C99   1.477       .  S
C94          C95   1.409       .  A
C95          C96   1.403       .  A
C95         N100   1.439       .  S
C96         H101   1.084       .  S
N97         H117   1.046       .  S
N97         H118   1.046       .  S
C99         C102   1.402       .  A
C99         C106   1.409       .  A
N100        H115   1.046       .  S
N100        H116   1.044       .  S
C102        C103   1.407       .  A
C102        H107   1.084       .  S
C103        C104   1.409       .  A
C103        N108   1.437       .  S
C104        C105   1.403       .  A
C105        C106   1.404       .  A
C105        H109   1.084       .  S
C106        N110   1.439       .  S
N108        H111   1.046       .  S
N108        H112   1.046       .  S
N110        H113   1.046       .  S
N110        H114   1.044       .  S
C119        C120   1.412       .  A
C119        C124   1.403       .  A
C120        C121   1.408       .  A
C120        N125   1.438       .  S
C121        C122   1.403       .  A
C121        H126   1.084       .  S
C122        C127   1.478       .  S
C122        C123   1.409       .  A
C123        C124   1.403       .  A
C123        N128   1.439       .  S
C124        H129   1.084       .  S
N125        H145   1.046       .  S
N125        H146   1.046       .  S
C127        C130   1.401       .  A
C127        C134   1.409       .  A
N128        H143   1.046       .  S
N128        H144   1.043       .  S
C130        C131   1.407       .  A
C130        H135   1.084       .  S
C131        C132   1.413       .  A
C131        N136   1.438       .  S
C132        C133   1.404       .  A
C133        C134   1.405       .  A
C133        H137   1.084       .  S
C134        N138   1.439       .  S
N136        H139   1.046       .  S
N136        H140   1.045       .  S
N138        H141   1.046       .  S
N138        H142   1.043       .  S
C147        C148   1.411       .  A
C147        C152   1.405       .  A
C148        C149   1.402       .  A
C148        N153   1.438       .  S
C149        C150   1.402       .  A
C149        H154   1.084       .  S
C150        C155   1.485       .  S
C150        C151   1.412       .  A
C151        C152   1.408       .  A
C151        N156   1.438       .  S
C152        H157   1.084       .  S
N153        H173   1.046       .  S
N153        H174   1.046       .  S
C155        C158   1.403       .  A
C155        C162   1.410       .  A
N156        H171   1.046       .  S
N156        H172   1.046       .  S
C158        C159   1.408       .  A
C158        H163   1.084       .  S
C159        C160   1.416       .  A
C159        N164   1.438       .  S
C160        C161   1.404       .  A
C161        C162   1.402       .  A
C161        H165   1.083       .  S
C162        N166   1.438       .  S
N164        H167   1.046       .  S
N164        H168   1.046       .  S
N166        H169   1.046       .  S
N166        H170   1.046       .  S
C175        C176   1.415       .  A
C175        C180   1.405       .  A
C176        C177   1.404       .  A
C176        N181   1.438       .  S
C177        C178   1.399       .  A
C177        H182   1.084       .  S
C178        C183   1.475       .  S
C178        C179   1.408       .  A
C179        C180   1.406       .  A
C179        N184   1.438       .  S
C180        H185   1.084       .  S
N181        H201   1.046       .  S
N181        H202   1.046       .  S
C183        C186   1.400       .  A
C183        C190   1.409       .  A
N184        H199   1.046       .  S
N184        H200   1.045       .  S
C186        C187   1.403       .  A
C186        H191   1.084       .  S
C187        C188   1.410       .  A
C187        N192   1.438       .  S
C188        C189   1.402       .  A
C189        C190   1.407       .  A
C189        H193   1.084       .  S
C190        N194   1.438       .  S
N192        H195   1.046       .  S
N192        H196   1.046       .  S
N194        H197   1.046       .  S
N194        H198   1.045       .  S
C203        C204   1.411       .  A
C203        C208   1.403       .  A
C204        C205   1.405       .  A
C204        N209   1.438       .  S
C205        C206   1.402       .  A
C205        H210   1.084       .  S
C206        C211   1.477       .  S
C206        C207   1.409       .  A
C207        C208   1.405       .  A
C207        N212   1.438       .  S
C208        H213   1.084       .  S
N209        H229   1.046       .  S
N209        H230   1.046       .  S
C211        C214   1.401       .  A
C211        C218   1.409       .  A
N212        H227   1.046       .  S
N212        H228   1.044       .  S
C214        C215   1.405       .  A
C214        H219   1.084       .  S
C215        C216   1.412       .  A
C215        N220   1.438       .  S
C216        C217   1.404       .  A
C217        C218   1.406       .  A
C217        H221   1.084       .  S
C218        N222   1.439       .  S
N220        H223   1.046       .  S
N220        H224   1.046       .  S
N222        H225   1.046       .  S
N222        H226   1.044       .  S
C231        C232   1.413       .  A
C231        C236   1.403       .  A
C232        C233   1.404       .  A
C232        N237   1.438       .  S
C233        C234   1.399       .  A
C233        H238   1.084       .  S
C234        C239   1.475       .  S
C234        C235   1.409       .  A
C235        C236   1.406       .  A
C235        N240   1.438       .  S
C236        H241   1.084       .  S
N237        H257   1.046       .  S
N237        H258   1.046       .  S
C239        C242   1.400       .  A
C239        C246   1.408       .  A
N240        H255   1.046       .  S
N240        H256   1.045       .  S
C242        C243   1.405       .  A
C242        H247   1.084       .  S
C243        C244   1.413       .  A
C243        N248   1.438       .  S
C244        C245   1.403       .  A
C245        C246   1.405       .  A
C245        H249   1.084       .  S
C246        N250   1.438       .  S
N248        H251   1.046       .  S
N248        H252   1.046       .  S
N250        H253   1.046       .  S
N250        H254   1.044       .  S
C259        C260   1.417       .  A
C259        C264   1.405       .  A
C260        C261   1.402       .  A
C260        N265   1.438       .  S
C261        C262   1.400       .  A
C261        H266   1.084       .  S
C262        C267   1.484       .  S
C262        C263   1.411       .  A
C263        C264   1.407       .  A
C263        N268   1.438       .  S
C264        H269   1.084       .  S
N265        H285   1.045       .  S
N265        H286   1.046       .  S
C267        C270   1.402       .  A
C267        C274   1.411       .  A
N268        H283   1.046       .  S
N268        H284   1.046       .  S
C270        C271   1.405       .  A
C270        H275   1.084       .  S
C271        C272   1.412       .  A
C271        N276   1.438       .  S
C272        C273   1.404       .  A
C273        C274   1.404       .  A
C273        H277   1.084       .  S
C274        N278   1.438       .  S
N276        H279   1.046       .  S
N276        H280   1.046       .  S
N278        H281   1.046       .  S
N278        H282   1.046       .  S
C287        C288   1.414       .  A
C287        C292   1.403       .  A
C288        C289   1.404       .  A
C288        N293   1.438       .  S
C289        C290   1.399       .  A
C289        H294   1.084       .  S
C290        C295   1.476       .  S
C290        C291   1.410       .  A
C291        C292   1.405       .  A
C291        N296   1.439       .  S
C292        H297   1.084       .  S
N293        H313   1.046       .  S
N293        H314   1.046       .  S
C295        C298   1.401       .  A
C295        C302   1.410       .  A
N296        H311   1.046       .  S
N296        H312   1.043       .  S
C298        C299   1.405       .  A
C298        H303   1.084       .  S
C299        C300   1.411       .  A
C299        N304   1.438       .  S
C300        C301   1.402       .  A
C301        C302   1.405       .  A
C301        H305   1.084       .  S
C302        N306   1.439       .  S
N304        H307   1.046       .  S
N304        H308   1.046       .  S
N306        H309   1.046       .  S
N306        H310   1.043       .  S
N315        N316   1.322       .  A
N315        N321   1.316       .  A
N315      Mn2228   2.209       .  S
N316        C323   1.354       .  A
N317        N319   1.316       .  A
N317        N318   1.319       .  A
N317       Mn647   2.197   1_545  S
N318        C324   1.351       .  A
N319        N320   1.321       .  A
N319      Mn1600   2.202       .  S
N320        C324   1.353       .  A
N321        N322   1.320       .  A
N322        C323   1.352       .  A
C323        C530   1.477       .  S
C324        C545   1.475       .  S
N325        N331   1.316       .  A
N325        N326   1.319       .  A
N325      Mn1611   2.200   1_545  S
N326        C334   1.353       .  A
N327        N328   1.319       .  A
N327        N329   1.315       .  A
N327       Mn333   2.194       .  S
N328        C335   1.352       .  A
N329        N330   1.320       .  A
N329      Mn2239   2.201       .  S
N330        C335   1.354       .  A
N331        N332   1.320       .  A
N331       Mn961   2.202   1_545  S
N332        C334   1.353       .  A
Mn333       N631   2.197       .  S
Mn333       N959   2.202       .  S
Mn333     Cl2241   2.541       .  S
C334        C489   1.481       .  S
C335        C601   1.477       .  S
N336        N337   1.318       .  A
N336        N342   1.316       .  A
N336       Mn344   2.199       .  S
N337        C345   1.352       .  A
N338        N340   1.316       .  A
N338        N339   1.320       .  A
N338       Mn670   2.202   1_556  S
N339        C346   1.352       .  A
N340        N341   1.320       .  A
N340       Mn972   2.201       .  S
N341        C346   1.353       .  A
N342        N343   1.322       .  A
N343        C345   1.354       .  A
Mn344      N2199   2.209   1_445  S
Mn344      N1575   2.202   1_455  S
Mn344       N968   2.201   1_545  S
C345        C433   1.477       .  S
C346        C586   1.479       .  S
N347        N348   1.320       .  A
N347        N353   1.315       .  A
N347       Mn983   2.201   1_455  S
N348        C358   1.353       .  A
N349        N350   1.319       .  A
N349        N351   1.316       .  A
N349       Mn356   2.198       .  S
N350        C359   1.351       .  A
N351        N352   1.322       .  A
N351       Mn355   2.209   1_445  S
N352        C359   1.354       .  A
N353        N354   1.320       .  A
N353       Mn984   2.203       .  S
N354        C358   1.355       .  A
Mn355      N1581   2.200   1_565  S
Mn355      N2213   2.201       .  S
Mn355       N975   2.201   1_655  S
Mn355      Cl357   2.549   1_665  S
Mn356       N652   2.202   1_545  S
Mn356       N981   2.203   1_545  S
Mn356      Cl357   2.544       .  S
Cl357     Mn2217   2.541   1_445  S
C358        C474   1.485       .  S
C359        C418   1.474       .  S
N360        N361   1.320       .  A
N360        N366   1.315       .  A
N360       Mn389   2.201       .  S
N361        C368   1.352       .  A
N362        N364   1.316       .  A
N362        N363   1.320       .  A
N362       Mn378   2.206       .  S
N363        C369   1.353       .  A
N364        N365   1.321       .  A
N364       Mn389   2.200       .  S
N365        C369   1.351       .  A
N366        N367   1.320       .  A
N366       Mn378   2.199       .  S
N367        C368   1.352       .  A
C368        C614   1.473       .  S
C369        C502   1.471       .  S
N370        N376   1.316       .  A
N370        N371   1.321       .  A
N370       Mn400   2.206       .  S
N371        C379   1.353       .  A
N372        N373   1.320       .  A
N372        N374   1.316       .  A
N372       Mn378   2.201       .  S
N373        C380   1.353       .  A
N374        N375   1.319       .  A
N374       Mn400   2.197       .  S
N375        C380   1.352       .  A
N376        N377   1.320       .  A
N376       Mn378   2.198       .  S
N377        C379   1.352       .  A
Mn378      Cl402   2.544       .  S
C379        C558   1.476       .  S
C380        C517   1.474       .  S
N381        N382   1.319       .  A
N381        N387   1.315       .  A
N381       Mn389   2.196       .  S
N382        C390   1.353       .  A
N383        N385   1.315       .  A
N383        N384   1.320       .  A
N383       Mn401   2.200       .  S
N384        C391   1.352       .  A
N385        N386   1.320       .  A
N385       Mn389   2.202       .  S
N386        C391   1.354       .  A
N387        N388   1.321       .  A
N387       Mn401   2.200       .  S
N388        C390   1.354       .  A
Mn389      Cl402   2.548       .  S
C390        C405   1.479       .  S
C391        C461   1.477       .  S
N392        N393   1.323       .  A
N392        N398   1.314       .  A
N392       Mn400   2.209       .  S
N393        C403   1.357       .  A
N394        N395   1.319       .  A
N394        N396   1.316       .  A
N394       Mn401   2.198       .  S
N395        C404   1.353       .  A
N396        N397   1.321       .  A
N396       Mn400   2.208       .  S
N397        C404   1.354       .  A
N398        N399   1.316       .  A
N398       Mn401   2.185       .  S
N399        C403   1.350       .  A
Mn400      Cl402   2.548       .  S
Mn401      Cl402   2.542       .  S
C403        C573   1.483       .  S
C404        C446   1.479       .  S
C405        C406   1.413       .  A
C405        C410   1.404       .  A
C406        C407   1.407       .  A
C406        N411   1.438       .  S
C407        C408   1.401       .  A
C407        H412   1.084       .  S
C408        C413   1.477       .  S
C408        C409   1.409       .  A
C409        C410   1.403       .  A
C409        N414   1.439       .  S
C410        H415   1.084       .  S
N411        H431   1.046       .  S
N411        H432   1.046       .  S
C413        C416   1.402       .  A
C413        C420   1.409       .  A
N414        H429   1.046       .  S
N414        H430   1.044       .  S
C416        C417   1.407       .  A
C416        H421   1.084       .  S
C417        C418   1.409       .  A
C417        N422   1.437       .  S
C418        C419   1.403       .  A
C419        C420   1.404       .  A
C419        H423   1.084       .  S
C420        N424   1.439       .  S
N422        H425   1.046       .  S
N422        H426   1.046       .  S
N424        H427   1.046       .  S
N424        H428   1.044       .  S
C433        C434   1.412       .  A
C433        C438   1.403       .  A
C434        C435   1.408       .  A
C434        N439   1.438       .  S
C435        C436   1.403       .  A
C435        H440   1.084       .  S
C436        C441   1.478       .  S
C436        C437   1.409       .  A
C437        C438   1.403       .  A
C437        N442   1.439       .  S
C438        H443   1.084       .  S
N439        H459   1.046       .  S
N439        H460   1.046       .  S
C441        C444   1.401       .  A
C441        C448   1.409       .  A
N442        H457   1.046       .  S
N442        H458   1.043       .  S
C444        C445   1.407       .  A
C444        H449   1.084       .  S
C445        C446   1.413       .  A
C445        N450   1.438       .  S
C446        C447   1.404       .  A
C447        C448   1.405       .  A
C447        H451   1.084       .  S
C448        N452   1.439       .  S
N450        H453   1.046       .  S
N450        H454   1.045       .  S
N452        H455   1.046       .  S
N452        H456   1.043       .  S
C461        C462   1.411       .  A
C461        C466   1.405       .  A
C462        C463   1.402       .  A
C462        N467   1.438       .  S
C463        C464   1.402       .  A
C463        H468   1.084       .  S
C464        C469   1.485       .  S
C464        C465   1.412       .  A
C465        C466   1.408       .  A
C465        N470   1.438       .  S
C466        H471   1.084       .  S
N467        H487   1.046       .  S
N467        H488   1.046       .  S
C469        C472   1.403       .  A
C469        C476   1.410       .  A
N470        H485   1.046       .  S
N470        H486   1.046       .  S
C472        C473   1.408       .  A
C472        H477   1.084       .  S
C473        C474   1.416       .  A
C473        N478   1.438       .  S
C474        C475   1.404       .  A
C475        C476   1.402       .  A
C475        H479   1.083       .  S
C476        N480   1.438       .  S
N478        H481   1.046       .  S
N478        H482   1.046       .  S
N480        H483   1.046       .  S
N480        H484   1.046       .  S
C489        C490   1.415       .  A
C489        C494   1.405       .  A
C490        C491   1.404       .  A
C490        N495   1.438       .  S
C491        C492   1.399       .  A
C491        H496   1.084       .  S
C492        C497   1.475       .  S
C492        C493   1.408       .  A
C493        C494   1.406       .  A
C493        N498   1.438       .  S
C494        H499   1.084       .  S
N495        H515   1.046       .  S
N495        H516   1.046       .  S
C497        C500   1.400       .  A
C497        C504   1.409       .  A
N498        H513   1.046       .  S
N498        H514   1.045       .  S
C500        C501   1.403       .  A
C500        H505   1.084       .  S
C501        C502   1.410       .  A
C501        N506   1.438       .  S
C502        C503   1.402       .  A
C503        C504   1.407       .  A
C503        H507   1.084       .  S
C504        N508   1.438       .  S
N506        H509   1.046       .  S
N506        H510   1.046       .  S
N508        H511   1.046       .  S
N508        H512   1.045       .  S
C517        C518   1.411       .  A
C517        C522   1.403       .  A
C518        C519   1.405       .  A
C518        N523   1.438       .  S
C519        C520   1.402       .  A
C519        H524   1.084       .  S
C520        C525   1.477       .  S
C520        C521   1.409       .  A
C521        C522   1.405       .  A
C521        N526   1.438       .  S
C522        H527   1.084       .  S
N523        H543   1.046       .  S
N523        H544   1.046       .  S
C525        C528   1.401       .  A
C525        C532   1.409       .  A
N526        H541   1.046       .  S
N526        H542   1.044       .  S
C528        C529   1.405       .  A
C528        H533   1.084       .  S
C529        C530   1.412       .  A
C529        N534   1.438       .  S
C530        C531   1.404       .  A
C531        C532   1.406       .  A
C531        H535   1.084       .  S
C532        N536   1.439       .  S
N534        H537   1.046       .  S
N534        H538   1.046       .  S
N536        H539   1.046       .  S
N536        H540   1.044       .  S
C545        C546   1.413       .  A
C545        C550   1.403       .  A
C546        C547   1.404       .  A
C546        N551   1.438       .  S
C547        C548   1.399       .  A
C547        H552   1.084       .  S
C548        C553   1.475       .  S
C548        C549   1.409       .  A
C549        C550   1.406       .  A
C549        N554   1.438       .  S
C550        H555   1.084       .  S
N551        H571   1.046       .  S
N551        H572   1.046       .  S
C553        C556   1.400       .  A
C553        C560   1.408       .  A
N554        H569   1.046       .  S
N554        H570   1.045       .  S
C556        C557   1.405       .  A
C556        H561   1.084       .  S
C557        C558   1.413       .  A
C557        N562   1.438       .  S
C558        C559   1.403       .  A
C559        C560   1.405       .  A
C559        H563   1.084       .  S
C560        N564   1.438       .  S
N562        H565   1.046       .  S
N562        H566   1.046       .  S
N564        H567   1.046       .  S
N564        H568   1.044       .  S
C573        C574   1.417       .  A
C573        C578   1.405       .  A
C574        C575   1.402       .  A
C574        N579   1.438       .  S
C575        C576   1.400       .  A
C575        H580   1.084       .  S
C576        C581   1.484       .  S
C576        C577   1.411       .  A
C577        C578   1.407       .  A
C577        N582   1.438       .  S
C578        H583   1.084       .  S
N579        H599   1.045       .  S
N579        H600   1.046       .  S
C581        C584   1.402       .  A
C581        C588   1.411       .  A
N582        H597   1.046       .  S
N582        H598   1.046       .  S
C584        C585   1.405       .  A
C584        H589   1.084       .  S
C585        C586   1.412       .  A
C585        N590   1.438       .  S
C586        C587   1.404       .  A
C587        C588   1.404       .  A
C587        H591   1.084       .  S
C588        N592   1.438       .  S
N590        H593   1.046       .  S
N590        H594   1.046       .  S
N592        H595   1.046       .  S
N592        H596   1.046       .  S
C601        C602   1.414       .  A
C601        C606   1.403       .  A
C602        C603   1.404       .  A
C602        N607   1.438       .  S
C603        C604   1.399       .  A
C603        H608   1.084       .  S
C604        C609   1.476       .  S
C604        C605   1.410       .  A
C605        C606   1.405       .  A
C605        N610   1.439       .  S
C606        H611   1.084       .  S
N607        H627   1.046       .  S
N607        H628   1.046       .  S
C609        C612   1.401       .  A
C609        C616   1.410       .  A
N610        H625   1.046       .  S
N610        H626   1.043       .  S
C612        C613   1.405       .  A
C612        H617   1.084       .  S
C613        C614   1.411       .  A
C613        N618   1.438       .  S
C614        C615   1.402       .  A
C615        C616   1.405       .  A
C615        H619   1.084       .  S
C616        N620   1.439       .  S
N618        H621   1.046       .  S
N618        H622   1.046       .  S
N620        H623   1.046       .  S
N620        H624   1.043       .  S
N629        N630   1.322       .  A
N629        N635   1.316       .  A
N629      Mn1286   2.209   1_565  S
N630        C637   1.354       .  A
N631        N633   1.316       .  A
N631        N632   1.319       .  A
N632        C638   1.351       .  A
N633        N634   1.321       .  A
N633      Mn1914   2.202       .  S
N634        C638   1.353       .  A
N635        N636   1.320       .  A
N635       Mn961   2.201       .  S
N636        C637   1.352       .  A
C637        C844   1.477       .  S
C638        C859   1.475       .  S
N639        N645   1.316       .  A
N639        N640   1.319       .  A
N639      Mn1925   2.200       .  S
N640        C648   1.353       .  A
N641        N642   1.319       .  A
N641        N643   1.315       .  A
N641       Mn647   2.194   1_554  S
N642        C649   1.352       .  A
N643        N644   1.320       .  A
N643      Mn1297   2.201       .  S
N644        C649   1.354       .  A
N645        N646   1.320       .  A
N646        C648   1.353       .  A
Mn647       N949   2.201       .  S
Mn647     Cl1299   2.541   1_566  S
C648        C803   1.481       .  S
C649        C915   1.477       .  S
N650        N651   1.318       .  A
N650        N656   1.316       .  A
N650       Mn658   2.199       .  S
N651        C659   1.352       .  A
N652        N654   1.316       .  A
N652        N653   1.320       .  A
N653        C660   1.353       .  A
N654        N655   1.320       .  A
N655        C660   1.353       .  A
N656        N657   1.322       .  A
N656       Mn984   2.206       .  S
N657        C659   1.354       .  A
Mn658      N1257   2.209   1_455  S
Mn658      N1889   2.202   1_455  S
Mn658      Cl985   2.553       .  S
C659        C747   1.477       .  S
C660        C900   1.479       .  S
N661        N662   1.320       .  A
N661        N667   1.315       .  A
N662        C672   1.353       .  A
N663        N664   1.319       .  A
N663        N665   1.316       .  A
N663       Mn670   2.198       .  S
N664        C673   1.351       .  A
N665        N666   1.322       .  A
N665       Mn669   2.209   1_455  S
N666        C673   1.354       .  A
N667        N668   1.320       .  A
N668        C672   1.355       .  A
Mn669      N1895   2.200       .  S
Mn669      N1271   2.201       .  S
Mn669      Cl671   2.549   1_655  S
Mn670       N970   2.206   1_554  S
Mn670      Cl671   2.544       .  S
Cl671     Mn1275   2.541   1_454  S
Cl671      Mn972   2.553   1_554  S
C672        C788   1.485       .  S
C673        C732   1.474       .  S
N674        N675   1.320       .  A
N674        N680   1.315       .  A
N674       Mn703   2.201       .  S
N675        C682   1.352       .  A
N676        N678   1.316       .  A
N676        N677   1.320       .  A
N676       Mn692   2.206       .  S
N677        C683   1.353       .  A
N678        N679   1.321       .  A
N678       Mn703   2.200       .  S
N679        C683   1.351       .  A
N680        N681   1.320       .  A
N680       Mn692   2.199       .  S
N681        C682   1.352       .  A
C682        C928   1.473       .  S
C683        C816   1.471       .  S
N684        N690   1.316       .  A
N684        N685   1.321       .  A
N684       Mn714   2.205       .  S
N685        C693   1.353       .  A
N686        N687   1.320       .  A
N686        N688   1.316       .  A
N686       Mn692   2.201       .  S
N687        C694   1.353       .  A
N688        N689   1.319       .  A
N688       Mn714   2.197       .  S
N689        C694   1.352       .  A
N690        N691   1.320       .  A
N690       Mn692   2.198       .  S
N691        C693   1.352       .  A
Mn692      Cl716   2.544       .  S
C693        C872   1.476       .  S
C694        C831   1.474       .  S
N695        N696   1.319       .  A
N695        N701   1.315       .  A
N695       Mn703   2.196       .  S
N696        C704   1.353       .  A
N697        N699   1.315       .  A
N697        N698   1.320       .  A
N697       Mn715   2.200       .  S
N698        C705   1.352       .  A
N699        N700   1.320       .  A
N699       Mn703   2.202       .  S
N700        C705   1.354       .  A
N701        N702   1.321       .  A
N701       Mn715   2.200       .  S
N702        C704   1.354       .  A
Mn703      Cl716   2.548       .  S
C704        C719   1.479       .  S
C705        C775   1.477       .  S
N706        N707   1.323       .  A
N706        N712   1.314       .  A
N706       Mn714   2.209       .  S
N707        C717   1.357       .  A
N708        N709   1.319       .  A
N708        N710   1.316       .  A
N708       Mn715   2.198       .  S
N709        C718   1.353       .  A
N710        N711   1.321       .  A
N710       Mn714   2.208       .  S
N711        C718   1.354       .  A
N712        N713   1.316       .  A
N712       Mn715   2.185       .  S
N713        C717   1.350       .  A
Mn714      Cl716   2.548       .  S
Mn715      Cl716   2.542       .  S
C717        C887   1.483       .  S
C718        C760   1.479       .  S
C719        C720   1.413       .  A
C719        C724   1.404       .  A
C720        C721   1.407       .  A
C720        N725   1.438       .  S
C721        C722   1.401       .  A
C721        H726   1.084       .  S
C722        C727   1.477       .  S
C722        C723   1.409       .  A
C723        C724   1.403       .  A
C723        N728   1.439       .  S
C724        H729   1.084       .  S
N725        H745   1.046       .  S
N725        H746   1.046       .  S
C727        C730   1.402       .  A
C727        C734   1.409       .  A
N728        H743   1.046       .  S
N728        H744   1.044       .  S
C730        C731   1.407       .  A
C730        H735   1.084       .  S
C731        C732   1.409       .  A
C731        N736   1.437       .  S
C732        C733   1.403       .  A
C733        C734   1.404       .  A
C733        H737   1.084       .  S
C734        N738   1.439       .  S
N736        H739   1.046       .  S
N736        H740   1.046       .  S
N738        H741   1.046       .  S
N738        H742   1.044       .  S
C747        C748   1.412       .  A
C747        C752   1.403       .  A
C748        C749   1.408       .  A
C748        N753   1.438       .  S
C749        C750   1.403       .  A
C749        H754   1.084       .  S
C750        C755   1.478       .  S
C750        C751   1.409       .  A
C751        C752   1.403       .  A
C751        N756   1.439       .  S
C752        H757   1.084       .  S
N753        H773   1.046       .  S
N753        H774   1.046       .  S
C755        C758   1.401       .  A
C755        C762   1.409       .  A
N756        H771   1.046       .  S
N756        H772   1.043       .  S
C758        C759   1.407       .  A
C758        H763   1.084       .  S
C759        C760   1.413       .  A
C759        N764   1.438       .  S
C760        C761   1.404       .  A
C761        C762   1.405       .  A
C761        H765   1.084       .  S
C762        N766   1.439       .  S
N764        H767   1.046       .  S
N764        H768   1.045       .  S
N766        H769   1.046       .  S
N766        H770   1.043       .  S
C775        C776   1.411       .  A
C775        C780   1.405       .  A
C776        C777   1.402       .  A
C776        N781   1.438       .  S
C777        C778   1.402       .  A
C777        H782   1.084       .  S
C778        C783   1.485       .  S
C778        C779   1.412       .  A
C779        C780   1.408       .  A
C779        N784   1.438       .  S
C780        H785   1.084       .  S
N781        H801   1.046       .  S
N781        H802   1.046       .  S
C783        C786   1.403       .  A
C783        C790   1.410       .  A
N784        H799   1.046       .  S
N784        H800   1.046       .  S
C786        C787   1.408       .  A
C786        H791   1.084       .  S
C787        C788   1.416       .  A
C787        N792   1.438       .  S
C788        C789   1.404       .  A
C789        C790   1.402       .  A
C789        H793   1.083       .  S
C790        N794   1.438       .  S
N792        H795   1.046       .  S
N792        H796   1.046       .  S
N794        H797   1.046       .  S
N794        H798   1.046       .  S
C803        C804   1.415       .  A
C803        C808   1.405       .  A
C804        C805   1.404       .  A
C804        N809   1.438       .  S
C805        C806   1.399       .  A
C805        H810   1.084       .  S
C806        C811   1.475       .  S
C806        C807   1.408       .  A
C807        C808   1.406       .  A
C807        N812   1.438       .  S
C808        H813   1.084       .  S
N809        H829   1.046       .  S
N809        H830   1.046       .  S
C811        C814   1.400       .  A
C811        C818   1.409       .  A
N812        H827   1.046       .  S
N812        H828   1.045       .  S
C814        C815   1.403       .  A
C814        H819   1.084       .  S
C815        C816   1.410       .  A
C815        N820   1.438       .  S
C816        C817   1.402       .  A
C817        C818   1.407       .  A
C817        H821   1.084       .  S
C818        N822   1.438       .  S
N820        H823   1.046       .  S
N820        H824   1.046       .  S
N822        H825   1.046       .  S
N822        H826   1.045       .  S
C831        C832   1.411       .  A
C831        C836   1.403       .  A
C832        C833   1.405       .  A
C832        N837   1.438       .  S
C833        C834   1.402       .  A
C833        H838   1.084       .  S
C834        C839   1.477       .  S
C834        C835   1.409       .  A
C835        C836   1.405       .  A
C835        N840   1.438       .  S
C836        H841   1.084       .  S
N837        H857   1.046       .  S
N837        H858   1.046       .  S
C839        C842   1.401       .  A
C839        C846   1.409       .  A
N840        H855   1.046       .  S
N840        H856   1.044       .  S
C842        C843   1.405       .  A
C842        H847   1.084       .  S
C843        C844   1.412       .  A
C843        N848   1.438       .  S
C844        C845   1.404       .  A
C845        C846   1.406       .  A
C845        H849   1.084       .  S
C846        N850   1.439       .  S
N848        H851   1.046       .  S
N848        H852   1.046       .  S
N850        H853   1.046       .  S
N850        H854   1.044       .  S
C859        C860   1.413       .  A
C859        C864   1.403       .  A
C860        C861   1.404       .  A
C860        N865   1.438       .  S
C861        C862   1.399       .  A
C861        H866   1.084       .  S
C862        C867   1.475       .  S
C862        C863   1.409       .  A
C863        C864   1.406       .  A
C863        N868   1.438       .  S
C864        H869   1.084       .  S
N865        H885   1.046       .  S
N865        H886   1.046       .  S
C867        C870   1.400       .  A
C867        C874   1.408       .  A
N868        H883   1.046       .  S
N868        H884   1.045       .  S
C870        C871   1.405       .  A
C870        H875   1.084       .  S
C871        C872   1.413       .  A
C871        N876   1.438       .  S
C872        C873   1.403       .  A
C873        C874   1.405       .  A
C873        H877   1.084       .  S
C874        N878   1.438       .  S
N876        H879   1.046       .  S
N876        H880   1.046       .  S
N878        H881   1.046       .  S
N878        H882   1.044       .  S
C887        C888   1.417       .  A
C887        C892   1.405       .  A
C888        C889   1.402       .  A
C888        N893   1.438       .  S
C889        C890   1.400       .  A
C889        H894   1.084       .  S
C890        C895   1.484       .  S
C890        C891   1.411       .  A
C891        C892   1.407       .  A
C891        N896   1.438       .  S
C892        H897   1.084       .  S
N893        H913   1.045       .  S
N893        H914   1.046       .  S
C895        C898   1.402       .  A
C895        C902   1.411       .  A
N896        H911   1.046       .  S
N896        H912   1.046       .  S
C898        C899   1.405       .  A
C898        H903   1.084       .  S
C899        C900   1.412       .  A
C899        N904   1.438       .  S
C900        C901   1.404       .  A
C901        C902   1.404       .  A
C901        H905   1.084       .  S
C902        N906   1.438       .  S
N904        H907   1.046       .  S
N904        H908   1.046       .  S
N906        H909   1.046       .  S
N906        H910   1.046       .  S
C915        C916   1.414       .  A
C915        C920   1.403       .  A
C916        C917   1.404       .  A
C916        N921   1.438       .  S
C917        C918   1.399       .  A
C917        H922   1.084       .  S
C918        C923   1.476       .  S
C918        C919   1.410       .  A
C919        C920   1.405       .  A
C919        N924   1.439       .  S
C920        H925   1.084       .  S
N921        H941   1.046       .  S
N921        H942   1.046       .  S
C923        C926   1.401       .  A
C923        C930   1.410       .  A
N924        H939   1.046       .  S
N924        H940   1.043       .  S
C926        C927   1.405       .  A
C926        H931   1.084       .  S
C927        C928   1.411       .  A
C927        N932   1.438       .  S
C928        C929   1.402       .  A
C929        C930   1.405       .  A
C929        H933   1.084       .  S
C930        N934   1.439       .  S
N932        H935   1.046       .  S
N932        H936   1.046       .  S
N934        H937   1.046       .  S
N934        H938   1.043       .  S
N943        N944   1.322       .  A
N943        N949   1.316       .  A
N943      Mn1600   2.209   1_565  S
N944        C951   1.354       .  A
N945        N947   1.316       .  A
N945        N946   1.319       .  A
N946        C952   1.351       .  A
N947        N948   1.321       .  A
N947      Mn2228   2.202       .  S
N948        C952   1.353       .  A
N949        N950   1.320       .  A
N950        C951   1.352       .  A
C951       C1158   1.477       .  S
C952       C1173   1.475       .  S
N953        N959   1.316       .  A
N953        N954   1.319       .  A
N953      Mn2239   2.200       .  S
N954        C962   1.353       .  A
N955        N956   1.319       .  A
N955        N957   1.315       .  A
N955       Mn961   2.194       .  S
N956        C963   1.352       .  A
N957        N958   1.320       .  A
N957      Mn1611   2.201       .  S
N958        C963   1.354       .  A
N959        N960   1.320       .  A
N960        C962   1.353       .  A
Mn961     Cl1613   2.542   1_565  S
C962       C1117   1.481       .  S
C963       C1229   1.477       .  S
N964        N965   1.318       .  A
N964        N970   1.316       .  A
N964       Mn972   2.199       .  S
N965        C973   1.352       .  A
N966        N968   1.316       .  A
N966        N967   1.320       .  A
N967        C974   1.353       .  A
N968        N969   1.320       .  A
N969        C974   1.353       .  A
N970        N971   1.322       .  A
N971        C973   1.354       .  A
Mn972      N1571   2.209   1_455  S
Mn972      N2203   2.202   1_455  S
C973       C1061   1.477       .  S
C974       C1214   1.479       .  S
N975        N976   1.320       .  A
N975        N981   1.315       .  A
N976        C986   1.353       .  A
N977        N978   1.319       .  A
N977        N979   1.316       .  A
N977       Mn984   2.198       .  S
N978        C987   1.351       .  A
N979        N980   1.322       .  A
N979       Mn983   2.209   1_455  S
N980        C987   1.354       .  A
N981        N982   1.320       .  A
N982        C986   1.355       .  A
Mn983      N2209   2.200       .  S
Mn983      N1585   2.201       .  S
Mn983      Cl985   2.549   1_655  S
Mn984      Cl985   2.544       .  S
Cl985     Mn1589   2.542   1_455  S
C986       C1102   1.485       .  S
C987       C1046   1.474       .  S
N988        N989   1.320       .  A
N988        N994   1.315       .  A
N988      Mn1017   2.201       .  S
N989        C996   1.352       .  A
N990        N992   1.316       .  A
N990        N991   1.320       .  A
N990      Mn1006   2.206       .  S
N991        C997   1.353       .  A
N992        N993   1.321       .  A
N992      Mn1017   2.200       .  S
N993        C997   1.351       .  A
N994        N995   1.320       .  A
N994      Mn1006   2.199       .  S
N995        C996   1.352       .  A
C996       C1242   1.473       .  S
C997       C1130   1.471       .  S
N998       N1004   1.316       .  A
N998        N999   1.321       .  A
N998      Mn1028   2.205       .  S
N999       C1007   1.353       .  A
N1000      N1001   1.320       .  A
N1000      N1002   1.316       .  A
N1000     Mn1006   2.201       .  S
N1001      C1008   1.353       .  A
N1002      N1003   1.319       .  A
N1002     Mn1028   2.197       .  S
N1003      C1008   1.352       .  A
N1004      N1005   1.320       .  A
N1004     Mn1006   2.198       .  S
N1005      C1007   1.352       .  A
Mn1006    Cl1030   2.544       .  S
C1007      C1186   1.476       .  S
C1008      C1145   1.474       .  S
N1009      N1010   1.319       .  A
N1009      N1015   1.315       .  A
N1009     Mn1017   2.196       .  S
N1010      C1018   1.353       .  A
N1011      N1013   1.315       .  A
N1011      N1012   1.320       .  A
N1011     Mn1029   2.200       .  S
N1012      C1019   1.352       .  A
N1013      N1014   1.320       .  A
N1013     Mn1017   2.202       .  S
N1014      C1019   1.354       .  A
N1015      N1016   1.321       .  A
N1015     Mn1029   2.200       .  S
N1016      C1018   1.354       .  A
Mn1017    Cl1030   2.548       .  S
C1018      C1033   1.479       .  S
C1019      C1089   1.477       .  S
N1020      N1021   1.323       .  A
N1020      N1026   1.314       .  A
N1020     Mn1028   2.209       .  S
N1021      C1031   1.357       .  A
N1022      N1023   1.319       .  A
N1022      N1024   1.316       .  A
N1022     Mn1029   2.198       .  S
N1023      C1032   1.353       .  A
N1024      N1025   1.321       .  A
N1024     Mn1028   2.208       .  S
N1025      C1032   1.354       .  A
N1026      N1027   1.316       .  A
N1026     Mn1029   2.185       .  S
N1027      C1031   1.350       .  A
Mn1028    Cl1030   2.548       .  S
Mn1029    Cl1030   2.542       .  S
C1031      C1201   1.483       .  S
C1032      C1074   1.479       .  S
C1033      C1034   1.413       .  A
C1033      C1038   1.404       .  A
C1034      C1035   1.407       .  A
C1034      N1039   1.438       .  S
C1035      C1036   1.401       .  A
C1035      H1040   1.084       .  S
C1036      C1041   1.477       .  S
C1036      C1037   1.409       .  A
C1037      C1038   1.403       .  A
C1037      N1042   1.439       .  S
C1038      H1043   1.084       .  S
N1039      H1059   1.046       .  S
N1039      H1060   1.046       .  S
C1041      C1044   1.402       .  A
C1041      C1048   1.409       .  A
N1042      H1057   1.046       .  S
N1042      H1058   1.044       .  S
C1044      C1045   1.407       .  A
C1044      H1049   1.084       .  S
C1045      C1046   1.409       .  A
C1045      N1050   1.437       .  S
C1046      C1047   1.403       .  A
C1047      C1048   1.404       .  A
C1047      H1051   1.084       .  S
C1048      N1052   1.439       .  S
N1050      H1053   1.046       .  S
N1050      H1054   1.046       .  S
N1052      H1055   1.046       .  S
N1052      H1056   1.044       .  S
C1061      C1062   1.412       .  A
C1061      C1066   1.403       .  A
C1062      C1063   1.408       .  A
C1062      N1067   1.438       .  S
C1063      C1064   1.403       .  A
C1063      H1068   1.084       .  S
C1064      C1069   1.478       .  S
C1064      C1065   1.409       .  A
C1065      C1066   1.403       .  A
C1065      N1070   1.439       .  S
C1066      H1071   1.084       .  S
N1067      H1087   1.046       .  S
N1067      H1088   1.046       .  S
C1069      C1072   1.401       .  A
C1069      C1076   1.409       .  A
N1070      H1085   1.046       .  S
N1070      H1086   1.043       .  S
C1072      C1073   1.407       .  A
C1072      H1077   1.084       .  S
C1073      C1074   1.413       .  A
C1073      N1078   1.438       .  S
C1074      C1075   1.404       .  A
C1075      C1076   1.405       .  A
C1075      H1079   1.084       .  S
C1076      N1080   1.439       .  S
N1078      H1081   1.046       .  S
N1078      H1082   1.045       .  S
N1080      H1083   1.046       .  S
N1080      H1084   1.043       .  S
C1089      C1090   1.411       .  A
C1089      C1094   1.405       .  A
C1090      C1091   1.402       .  A
C1090      N1095   1.438       .  S
C1091      C1092   1.402       .  A
C1091      H1096   1.084       .  S
C1092      C1097   1.485       .  S
C1092      C1093   1.412       .  A
C1093      C1094   1.408       .  A
C1093      N1098   1.438       .  S
C1094      H1099   1.084       .  S
N1095      H1115   1.046       .  S
N1095      H1116   1.046       .  S
C1097      C1100   1.403       .  A
C1097      C1104   1.410       .  A
N1098      H1113   1.046       .  S
N1098      H1114   1.046       .  S
C1100      C1101   1.408       .  A
C1100      H1105   1.084       .  S
C1101      C1102   1.416       .  A
C1101      N1106   1.438       .  S
C1102      C1103   1.404       .  A
C1103      C1104   1.402       .  A
C1103      H1107   1.083       .  S
C1104      N1108   1.438       .  S
N1106      H1109   1.046       .  S
N1106      H1110   1.046       .  S
N1108      H1111   1.046       .  S
N1108      H1112   1.046       .  S
C1117      C1118   1.415       .  A
C1117      C1122   1.405       .  A
C1118      C1119   1.404       .  A
C1118      N1123   1.438       .  S
C1119      C1120   1.399       .  A
C1119      H1124   1.084       .  S
C1120      C1125   1.475       .  S
C1120      C1121   1.408       .  A
C1121      C1122   1.406       .  A
C1121      N1126   1.438       .  S
C1122      H1127   1.084       .  S
N1123      H1143   1.046       .  S
N1123      H1144   1.046       .  S
C1125      C1128   1.400       .  A
C1125      C1132   1.409       .  A
N1126      H1141   1.046       .  S
N1126      H1142   1.045       .  S
C1128      C1129   1.403       .  A
C1128      H1133   1.084       .  S
C1129      C1130   1.410       .  A
C1129      N1134   1.438       .  S
C1130      C1131   1.402       .  A
C1131      C1132   1.407       .  A
C1131      H1135   1.084       .  S
C1132      N1136   1.438       .  S
N1134      H1137   1.046       .  S
N1134      H1138   1.046       .  S
N1136      H1139   1.046       .  S
N1136      H1140   1.045       .  S
C1145      C1146   1.411       .  A
C1145      C1150   1.403       .  A
C1146      C1147   1.405       .  A
C1146      N1151   1.438       .  S
C1147      C1148   1.402       .  A
C1147      H1152   1.084       .  S
C1148      C1153   1.477       .  S
C1148      C1149   1.409       .  A
C1149      C1150   1.405       .  A
C1149      N1154   1.438       .  S
C1150      H1155   1.084       .  S
N1151      H1171   1.046       .  S
N1151      H1172   1.046       .  S
C1153      C1156   1.401       .  A
C1153      C1160   1.409       .  A
N1154      H1169   1.046       .  S
N1154      H1170   1.044       .  S
C1156      C1157   1.405       .  A
C1156      H1161   1.084       .  S
C1157      C1158   1.412       .  A
C1157      N1162   1.438       .  S
C1158      C1159   1.404       .  A
C1159      C1160   1.406       .  A
C1159      H1163   1.084       .  S
C1160      N1164   1.439       .  S
N1162      H1165   1.046       .  S
N1162      H1166   1.046       .  S
N1164      H1167   1.046       .  S
N1164      H1168   1.044       .  S
C1173      C1174   1.413       .  A
C1173      C1178   1.403       .  A
C1174      C1175   1.404       .  A
C1174      N1179   1.438       .  S
C1175      C1176   1.399       .  A
C1175      H1180   1.084       .  S
C1176      C1181   1.475       .  S
C1176      C1177   1.409       .  A
C1177      C1178   1.406       .  A
C1177      N1182   1.438       .  S
C1178      H1183   1.084       .  S
N1179      H1199   1.046       .  S
N1179      H1200   1.046       .  S
C1181      C1184   1.400       .  A
C1181      C1188   1.408       .  A
N1182      H1197   1.046       .  S
N1182      H1198   1.045       .  S
C1184      C1185   1.405       .  A
C1184      H1189   1.084       .  S
C1185      C1186   1.413       .  A
C1185      N1190   1.438       .  S
C1186      C1187   1.403       .  A
C1187      C1188   1.405       .  A
C1187      H1191   1.084       .  S
C1188      N1192   1.438       .  S
N1190      H1193   1.046       .  S
N1190      H1194   1.046       .  S
N1192      H1195   1.046       .  S
N1192      H1196   1.044       .  S
C1201      C1202   1.417       .  A
C1201      C1206   1.405       .  A
C1202      C1203   1.402       .  A
C1202      N1207   1.438       .  S
C1203      C1204   1.400       .  A
C1203      H1208   1.084       .  S
C1204      C1209   1.484       .  S
C1204      C1205   1.411       .  A
C1205      C1206   1.407       .  A
C1205      N1210   1.438       .  S
C1206      H1211   1.084       .  S
N1207      H1227   1.045       .  S
N1207      H1228   1.046       .  S
C1209      C1212   1.402       .  A
C1209      C1216   1.411       .  A
N1210      H1225   1.046       .  S
N1210      H1226   1.046       .  S
C1212      C1213   1.405       .  A
C1212      H1217   1.084       .  S
C1213      C1214   1.412       .  A
C1213      N1218   1.438       .  S
C1214      C1215   1.404       .  A
C1215      C1216   1.404       .  A
C1215      H1219   1.084       .  S
C1216      N1220   1.438       .  S
N1218      H1221   1.046       .  S
N1218      H1222   1.046       .  S
N1220      H1223   1.046       .  S
N1220      H1224   1.046       .  S
C1229      C1230   1.414       .  A
C1229      C1234   1.403       .  A
C1230      C1231   1.404       .  A
C1230      N1235   1.438       .  S
C1231      C1232   1.400       .  A
C1231      H1236   1.084       .  S
C1232      C1237   1.476       .  S
C1232      C1233   1.410       .  A
C1233      C1234   1.405       .  A
C1233      N1238   1.439       .  S
C1234      H1239   1.084       .  S
N1235      H1255   1.046       .  S
N1235      H1256   1.046       .  S
C1237      C1240   1.401       .  A
C1237      C1244   1.410       .  A
N1238      H1253   1.046       .  S
N1238      H1254   1.043       .  S
C1240      C1241   1.405       .  A
C1240      H1245   1.084       .  S
C1241      C1242   1.411       .  A
C1241      N1246   1.438       .  S
C1242      C1243   1.402       .  A
C1243      C1244   1.405       .  A
C1243      H1247   1.084       .  S
C1244      N1248   1.439       .  S
N1246      H1249   1.046       .  S
N1246      H1250   1.046       .  S
N1248      H1251   1.046       .  S
N1248      H1252   1.043       .  S
N1257      N1258   1.322       .  A
N1257      N1263   1.316       .  A
N1258      C1265   1.354       .  A
N1259      N1261   1.316       .  A
N1259      N1260   1.319       .  A
N1259     Mn2217   2.197   1_545  S
N1260      C1266   1.351       .  A
N1261      N1262   1.321       .  A
N1262      C1266   1.353       .  A
N1263      N1264   1.320       .  A
N1263     Mn1589   2.201       .  S
N1264      C1265   1.352       .  A
C1265      C1472   1.477       .  S
C1266      C1487   1.475       .  S
N1267      N1273   1.316       .  A
N1267      N1268   1.319       .  A
N1268      C1276   1.353       .  A
N1269      N1270   1.319       .  A
N1269      N1271   1.315       .  A
N1269     Mn1275   2.194   1_554  S
N1270      C1277   1.352       .  A
N1271      N1272   1.320       .  A
N1272      C1277   1.354       .  A
N1273      N1274   1.320       .  A
N1273     Mn1903   2.202   1_544  S
N1274      C1276   1.353       .  A
Mn1275     N2201   2.197       .  S
Mn1275     N1577   2.201       .  S
Mn1275     N1901   2.202   1_556  S
C1276      C1431   1.481       .  S
C1277      C1543   1.477       .  S
N1278      N1279   1.318       .  A
N1278      N1284   1.316       .  A
N1278     Mn1286   2.199       .  S
N1279      C1287   1.352       .  A
N1280      N1282   1.316       .  A
N1280      N1281   1.320       .  A
N1280     Mn2240   2.202       .  S
N1281      C1288   1.353       .  A
N1282      N1283   1.320       .  A
N1282     Mn1914   2.201       .  S
N1283      C1288   1.353       .  A
N1284      N1285   1.322       .  A
N1284     Mn1612   2.206       .  S
N1285      C1287   1.354       .  A
Mn1286     N1910   2.201   1_545  S
Mn1286    Cl1613   2.553       .  S
C1287      C1375   1.477       .  S
C1288      C1528   1.479       .  S
N1289      N1290   1.320       .  A
N1289      N1295   1.315       .  A
N1289     Mn1925   2.201       .  S
N1290      C1300   1.353       .  A
N1291      N1292   1.319       .  A
N1291      N1293   1.316       .  A
N1291     Mn1298   2.198       .  S
N1292      C1301   1.351       .  A
N1293      N1294   1.322       .  A
N1293     Mn1297   2.209   1_545  S
N1294      C1301   1.354       .  A
N1295      N1296   1.320       .  A
N1295     Mn1926   2.203       .  S
N1296      C1300   1.355       .  A
Mn1297     N1917   2.200       .  S
Mn1297    Cl1299   2.549   1_565  S
Mn1298     N2222   2.202   1_544  S
Mn1298     N1598   2.206   1_554  S
Mn1298     N1923   2.203   1_545  S
Mn1298    Cl1299   2.544       .  S
Cl1299    Mn1600   2.553   1_554  S
C1300      C1416   1.485       .  S
C1301      C1360   1.474       .  S
N1302      N1303   1.320       .  A
N1302      N1308   1.315       .  A
N1302     Mn1331   2.201       .  S
N1303      C1310   1.352       .  A
N1304      N1306   1.316       .  A
N1304      N1305   1.320       .  A
N1304     Mn1320   2.206       .  S
N1305      C1311   1.353       .  A
N1306      N1307   1.321       .  A
N1306     Mn1331   2.200       .  S
N1307      C1311   1.351       .  A
N1308      N1309   1.320       .  A
N1308     Mn1320   2.199       .  S
N1309      C1310   1.352       .  A
C1310      C1556   1.473       .  S
C1311      C1444   1.471       .  S
N1312      N1318   1.316       .  A
N1312      N1313   1.321       .  A
N1312     Mn1342   2.205       .  S
N1313      C1321   1.353       .  A
N1314      N1315   1.320       .  A
N1314      N1316   1.316       .  A
N1314     Mn1320   2.201       .  S
N1315      C1322   1.353       .  A
N1316      N1317   1.319       .  A
N1316     Mn1342   2.197       .  S
N1317      C1322   1.352       .  A
N1318      N1319   1.320       .  A
N1318     Mn1320   2.198       .  S
N1319      C1321   1.352       .  A
Mn1320    Cl1344   2.544       .  S
C1321      C1500   1.476       .  S
C1322      C1459   1.474       .  S
N1323      N1324   1.319       .  A
N1323      N1329   1.315       .  A
N1323     Mn1331   2.196       .  S
N1324      C1332   1.353       .  A
N1325      N1327   1.315       .  A
N1325      N1326   1.320       .  A
N1325     Mn1343   2.200       .  S
N1326      C1333   1.352       .  A
N1327      N1328   1.320       .  A
N1327     Mn1331   2.202       .  S
N1328      C1333   1.354       .  A
N1329      N1330   1.321       .  A
N1329     Mn1343   2.200       .  S
N1330      C1332   1.354       .  A
Mn1331    Cl1344   2.548       .  S
C1332      C1347   1.479       .  S
C1333      C1403   1.477       .  S
N1334      N1335   1.323       .  A
N1334      N1340   1.314       .  A
N1334     Mn1342   2.209       .  S
N1335      C1345   1.357       .  A
N1336      N1337   1.319       .  A
N1336      N1338   1.316       .  A
N1336     Mn1343   2.198       .  S
N1337      C1346   1.353       .  A
N1338      N1339   1.321       .  A
N1338     Mn1342   2.208       .  S
N1339      C1346   1.354       .  A
N1340      N1341   1.316       .  A
N1340     Mn1343   2.185       .  S
N1341      C1345   1.350       .  A
Mn1342    Cl1344   2.548       .  S
Mn1343    Cl1344   2.542       .  S
C1345      C1515   1.483       .  S
C1346      C1388   1.479       .  S
C1347      C1348   1.413       .  A
C1347      C1352   1.404       .  A
C1348      C1349   1.407       .  A
C1348      N1353   1.438       .  S
C1349      C1350   1.401       .  A
C1349      H1354   1.084       .  S
C1350      C1355   1.477       .  S
C1350      C1351   1.409       .  A
C1351      C1352   1.403       .  A
C1351      N1356   1.439       .  S
C1352      H1357   1.084       .  S
N1353      H1373   1.046       .  S
N1353      H1374   1.046       .  S
C1355      C1358   1.402       .  A
C1355      C1362   1.409       .  A
N1356      H1371   1.046       .  S
N1356      H1372   1.044       .  S
C1358      C1359   1.407       .  A
C1358      H1363   1.084       .  S
C1359      C1360   1.409       .  A
C1359      N1364   1.437       .  S
C1360      C1361   1.403       .  A
C1361      C1362   1.404       .  A
C1361      H1365   1.084       .  S
C1362      N1366   1.439       .  S
N1364      H1367   1.046       .  S
N1364      H1368   1.046       .  S
N1366      H1369   1.046       .  S
N1366      H1370   1.044       .  S
C1375      C1376   1.412       .  A
C1375      C1380   1.403       .  A
C1376      C1377   1.408       .  A
C1376      N1381   1.438       .  S
C1377      C1378   1.403       .  A
C1377      H1382   1.084       .  S
C1378      C1383   1.478       .  S
C1378      C1379   1.409       .  A
C1379      C1380   1.403       .  A
C1379      N1384   1.439       .  S
C1380      H1385   1.084       .  S
N1381      H1401   1.046       .  S
N1381      H1402   1.046       .  S
C1383      C1386   1.401       .  A
C1383      C1390   1.409       .  A
N1384      H1399   1.046       .  S
N1384      H1400   1.043       .  S
C1386      C1387   1.407       .  A
C1386      H1391   1.084       .  S
C1387      C1388   1.413       .  A
C1387      N1392   1.438       .  S
C1388      C1389   1.404       .  A
C1389      C1390   1.405       .  A
C1389      H1393   1.084       .  S
C1390      N1394   1.439       .  S
N1392      H1395   1.046       .  S
N1392      H1396   1.045       .  S
N1394      H1397   1.046       .  S
N1394      H1398   1.043       .  S
C1403      C1404   1.411       .  A
C1403      C1408   1.405       .  A
C1404      C1405   1.402       .  A
C1404      N1409   1.438       .  S
C1405      C1406   1.402       .  A
C1405      H1410   1.084       .  S
C1406      C1411   1.485       .  S
C1406      C1407   1.412       .  A
C1407      C1408   1.408       .  A
C1407      N1412   1.438       .  S
C1408      H1413   1.084       .  S
N1409      H1429   1.046       .  S
N1409      H1430   1.046       .  S
C1411      C1414   1.403       .  A
C1411      C1418   1.410       .  A
N1412      H1427   1.046       .  S
N1412      H1428   1.046       .  S
C1414      C1415   1.408       .  A
C1414      H1419   1.084       .  S
C1415      C1416   1.416       .  A
C1415      N1420   1.438       .  S
C1416      C1417   1.404       .  A
C1417      C1418   1.402       .  A
C1417      H1421   1.083       .  S
C1418      N1422   1.438       .  S
N1420      H1423   1.046       .  S
N1420      H1424   1.046       .  S
N1422      H1425   1.046       .  S
N1422      H1426   1.046       .  S
C1431      C1432   1.415       .  A
C1431      C1436   1.405       .  A
C1432      C1433   1.404       .  A
C1432      N1437   1.438       .  S
C1433      C1434   1.399       .  A
C1433      H1438   1.084       .  S
C1434      C1439   1.475       .  S
C1434      C1435   1.408       .  A
C1435      C1436   1.406       .  A
C1435      N1440   1.438       .  S
C1436      H1441   1.084       .  S
N1437      H1457   1.046       .  S
N1437      H1458   1.046       .  S
C1439      C1442   1.400       .  A
C1439      C1446   1.409       .  A
N1440      H1455   1.046       .  S
N1440      H1456   1.045       .  S
C1442      C1443   1.403       .  A
C1442      H1447   1.084       .  S
C1443      C1444   1.410       .  A
C1443      N1448   1.438       .  S
C1444      C1445   1.402       .  A
C1445      C1446   1.407       .  A
C1445      H1449   1.084       .  S
C1446      N1450   1.438       .  S
N1448      H1451   1.046       .  S
N1448      H1452   1.046       .  S
N1450      H1453   1.046       .  S
N1450      H1454   1.045       .  S
C1459      C1460   1.411       .  A
C1459      C1464   1.403       .  A
C1460      C1461   1.405       .  A
C1460      N1465   1.438       .  S
C1461      C1462   1.402       .  A
C1461      H1466   1.084       .  S
C1462      C1467   1.477       .  S
C1462      C1463   1.409       .  A
C1463      C1464   1.405       .  A
C1463      N1468   1.438       .  S
C1464      H1469   1.084       .  S
N1465      H1485   1.046       .  S
N1465      H1486   1.046       .  S
C1467      C1470   1.401       .  A
C1467      C1474   1.409       .  A
N1468      H1483   1.046       .  S
N1468      H1484   1.044       .  S
C1470      C1471   1.405       .  A
C1470      H1475   1.084       .  S
C1471      C1472   1.412       .  A
C1471      N1476   1.438       .  S
C1472      C1473   1.404       .  A
C1473      C1474   1.406       .  A
C1473      H1477   1.084       .  S
C1474      N1478   1.439       .  S
N1476      H1479   1.046       .  S
N1476      H1480   1.046       .  S
N1478      H1481   1.046       .  S
N1478      H1482   1.044       .  S
C1487      C1488   1.413       .  A
C1487      C1492   1.403       .  A
C1488      C1489   1.404       .  A
C1488      N1493   1.438       .  S
C1489      C1490   1.399       .  A
C1489      H1494   1.084       .  S
C1490      C1495   1.475       .  S
C1490      C1491   1.409       .  A
C1491      C1492   1.406       .  A
C1491      N1496   1.438       .  S
C1492      H1497   1.084       .  S
N1493      H1513   1.046       .  S
N1493      H1514   1.046       .  S
C1495      C1498   1.400       .  A
C1495      C1502   1.408       .  A
N1496      H1511   1.046       .  S
N1496      H1512   1.045       .  S
C1498      C1499   1.405       .  A
C1498      H1503   1.084       .  S
C1499      C1500   1.413       .  A
C1499      N1504   1.438       .  S
C1500      C1501   1.403       .  A
C1501      C1502   1.405       .  A
C1501      H1505   1.084       .  S
C1502      N1506   1.438       .  S
N1504      H1507   1.046       .  S
N1504      H1508   1.046       .  S
N1506      H1509   1.046       .  S
N1506      H1510   1.044       .  S
C1515      C1516   1.417       .  A
C1515      C1520   1.405       .  A
C1516      C1517   1.402       .  A
C1516      N1521   1.438       .  S
C1517      C1518   1.400       .  A
C1517      H1522   1.084       .  S
C1518      C1523   1.484       .  S
C1518      C1519   1.411       .  A
C1519      C1520   1.407       .  A
C1519      N1524   1.438       .  S
C1520      H1525   1.084       .  S
N1521      H1541   1.045       .  S
N1521      H1542   1.046       .  S
C1523      C1526   1.402       .  A
C1523      C1530   1.411       .  A
N1524      H1539   1.046       .  S
N1524      H1540   1.046       .  S
C1526      C1527   1.405       .  A
C1526      H1531   1.084       .  S
C1527      C1528   1.412       .  A
C1527      N1532   1.438       .  S
C1528      C1529   1.404       .  A
C1529      C1530   1.404       .  A
C1529      H1533   1.084       .  S
C1530      N1534   1.438       .  S
N1532      H1535   1.046       .  S
N1532      H1536   1.046       .  S
N1534      H1537   1.046       .  S
N1534      H1538   1.046       .  S
C1543      C1544   1.414       .  A
C1543      C1548   1.403       .  A
C1544      C1545   1.404       .  A
C1544      N1549   1.438       .  S
C1545      C1546   1.399       .  A
C1545      H1550   1.084       .  S
C1546      C1551   1.476       .  S
C1546      C1547   1.410       .  A
C1547      C1548   1.405       .  A
C1547      N1552   1.439       .  S
C1548      H1553   1.084       .  S
N1549      H1569   1.046       .  S
N1549      H1570   1.046       .  S
C1551      C1554   1.401       .  A
C1551      C1558   1.410       .  A
N1552      H1567   1.046       .  S
N1552      H1568   1.043       .  S
C1554      C1555   1.405       .  A
C1554      H1559   1.084       .  S
C1555      C1556   1.411       .  A
C1555      N1560   1.438       .  S
C1556      C1557   1.402       .  A
C1557      C1558   1.405       .  A
C1557      H1561   1.084       .  S
C1558      N1562   1.439       .  S
N1560      H1563   1.046       .  S
N1560      H1564   1.046       .  S
N1562      H1565   1.046       .  S
N1562      H1566   1.043       .  S
N1571      N1572   1.322       .  A
N1571      N1577   1.316       .  A
N1572      C1579   1.354       .  A
N1573      N1575   1.316       .  A
N1573      N1574   1.319       .  A
N1573     Mn1903   2.197   1_545  S
N1574      C1580   1.351       .  A
N1575      N1576   1.321       .  A
N1576      C1580   1.353       .  A
N1577      N1578   1.320       .  A
N1578      C1579   1.352       .  A
C1579      C1786   1.477       .  S
C1580      C1801   1.475       .  S
N1581      N1587   1.316       .  A
N1581      N1582   1.319       .  A
N1582      C1590   1.353       .  A
N1583      N1584   1.319       .  A
N1583      N1585   1.315       .  A
N1583     Mn1589   2.194       .  S
N1584      C1591   1.352       .  A
N1585      N1586   1.320       .  A
N1586      C1591   1.354       .  A
N1587      N1588   1.320       .  A
N1587     Mn2217   2.202   1_545  S
N1588      C1590   1.353       .  A
Mn1589     N1887   2.197       .  S
Mn1589     N2215   2.202       .  S
C1590      C1745   1.481       .  S
C1591      C1857   1.477       .  S
N1592      N1593   1.318       .  A
N1592      N1598   1.316       .  A
N1592     Mn1600   2.199       .  S
N1593      C1601   1.352       .  A
N1594      N1596   1.316       .  A
N1594      N1595   1.320       .  A
N1594     Mn1926   2.202   1_556  S
N1595      C1602   1.353       .  A
N1596      N1597   1.320       .  A
N1596     Mn2228   2.201       .  S
N1597      C1602   1.353       .  A
N1598      N1599   1.322       .  A
N1599      C1601   1.354       .  A
Mn1600     N2224   2.201   1_545  S
C1601      C1689   1.477       .  S
C1602      C1842   1.479       .  S
N1603      N1604   1.320       .  A
N1603      N1609   1.315       .  A
N1603     Mn2239   2.201       .  S
N1604      C1614   1.353       .  A
N1605      N1606   1.319       .  A
N1605      N1607   1.316       .  A
N1605     Mn1612   2.198       .  S
N1606      C1615   1.351       .  A
N1607      N1608   1.322       .  A
N1607     Mn1611   2.209   1_545  S
N1608      C1615   1.354       .  A
N1609      N1610   1.320       .  A
N1609     Mn2240   2.203       .  S
N1610      C1614   1.355       .  A
Mn1611     N2231   2.201       .  S
Mn1611    Cl1613   2.549   1_565  S
Mn1612     N1908   2.202   1_545  S
Mn1612     N2237   2.203   1_545  S
Mn1612    Cl1613   2.544       .  S
C1614      C1730   1.485       .  S
C1615      C1674   1.474       .  S
N1616      N1617   1.320       .  A
N1616      N1622   1.315       .  A
N1616     Mn1645   2.201       .  S
N1617      C1624   1.352       .  A
N1618      N1620   1.316       .  A
N1618      N1619   1.320       .  A
N1618     Mn1634   2.206       .  S
N1619      C1625   1.353       .  A
N1620      N1621   1.321       .  A
N1620     Mn1645   2.200       .  S
N1621      C1625   1.351       .  A
N1622      N1623   1.320       .  A
N1622     Mn1634   2.199       .  S
N1623      C1624   1.352       .  A
C1624      C1870   1.473       .  S
C1625      C1758   1.471       .  S
N1626      N1632   1.316       .  A
N1626      N1627   1.321       .  A
N1626     Mn1656   2.205       .  S
N1627      C1635   1.353       .  A
N1628      N1629   1.320       .  A
N1628      N1630   1.316       .  A
N1628     Mn1634   2.201       .  S
N1629      C1636   1.353       .  A
N1630      N1631   1.319       .  A
N1630     Mn1656   2.197       .  S
N1631      C1636   1.352       .  A
N1632      N1633   1.320       .  A
N1632     Mn1634   2.198       .  S
N1633      C1635   1.352       .  A
Mn1634    Cl1658   2.544       .  S
C1635      C1814   1.476       .  S
C1636      C1773   1.474       .  S
N1637      N1638   1.319       .  A
N1637      N1643   1.315       .  A
N1637     Mn1645   2.196       .  S
N1638      C1646   1.353       .  A
N1639      N1641   1.315       .  A
N1639      N1640   1.320       .  A
N1639     Mn1657   2.200       .  S
N1640      C1647   1.352       .  A
N1641      N1642   1.320       .  A
N1641     Mn1645   2.202       .  S
N1642      C1647   1.354       .  A
N1643      N1644   1.321       .  A
N1643     Mn1657   2.200       .  S
N1644      C1646   1.354       .  A
Mn1645    Cl1658   2.548       .  S
C1646      C1661   1.479       .  S
C1647      C1717   1.477       .  S
N1648      N1649   1.323       .  A
N1648      N1654   1.314       .  A
N1648     Mn1656   2.209       .  S
N1649      C1659   1.357       .  A
N1650      N1651   1.319       .  A
N1650      N1652   1.316       .  A
N1650     Mn1657   2.198       .  S
N1651      C1660   1.353       .  A
N1652      N1653   1.321       .  A
N1652     Mn1656   2.208       .  S
N1653      C1660   1.354       .  A
N1654      N1655   1.316       .  A
N1654     Mn1657   2.185       .  S
N1655      C1659   1.350       .  A
Mn1656    Cl1658   2.548       .  S
Mn1657    Cl1658   2.542       .  S
C1659      C1829   1.483       .  S
C1660      C1702   1.479       .  S
C1661      C1662   1.413       .  A
C1661      C1666   1.404       .  A
C1662      C1663   1.407       .  A
C1662      N1667   1.438       .  S
C1663      C1664   1.401       .  A
C1663      H1668   1.084       .  S
C1664      C1669   1.477       .  S
C1664      C1665   1.409       .  A
C1665      C1666   1.403       .  A
C1665      N1670   1.439       .  S
C1666      H1671   1.084       .  S
N1667      H1687   1.046       .  S
N1667      H1688   1.046       .  S
C1669      C1672   1.402       .  A
C1669      C1676   1.409       .  A
N1670      H1685   1.046       .  S
N1670      H1686   1.044       .  S
C1672      C1673   1.407       .  A
C1672      H1677   1.084       .  S
C1673      C1674   1.409       .  A
C1673      N1678   1.437       .  S
C1674      C1675   1.403       .  A
C1675      C1676   1.404       .  A
C1675      H1679   1.084       .  S
C1676      N1680   1.439       .  S
N1678      H1681   1.046       .  S
N1678      H1682   1.046       .  S
N1680      H1683   1.046       .  S
N1680      H1684   1.044       .  S
C1689      C1690   1.412       .  A
C1689      C1694   1.403       .  A
C1690      C1691   1.408       .  A
C1690      N1695   1.438       .  S
C1691      C1692   1.403       .  A
C1691      H1696   1.084       .  S
C1692      C1697   1.478       .  S
C1692      C1693   1.409       .  A
C1693      C1694   1.403       .  A
C1693      N1698   1.439       .  S
C1694      H1699   1.084       .  S
N1695      H1715   1.046       .  S
N1695      H1716   1.046       .  S
C1697      C1700   1.401       .  A
C1697      C1704   1.409       .  A
N1698      H1713   1.046       .  S
N1698      H1714   1.043       .  S
C1700      C1701   1.407       .  A
C1700      H1705   1.084       .  S
C1701      C1702   1.413       .  A
C1701      N1706   1.438       .  S
C1702      C1703   1.404       .  A
C1703      C1704   1.405       .  A
C1703      H1707   1.084       .  S
C1704      N1708   1.439       .  S
N1706      H1709   1.046       .  S
N1706      H1710   1.045       .  S
N1708      H1711   1.046       .  S
N1708      H1712   1.043       .  S
C1717      C1718   1.411       .  A
C1717      C1722   1.405       .  A
C1718      C1719   1.402       .  A
C1718      N1723   1.438       .  S
C1719      C1720   1.402       .  A
C1719      H1724   1.084       .  S
C1720      C1725   1.485       .  S
C1720      C1721   1.412       .  A
C1721      C1722   1.408       .  A
C1721      N1726   1.438       .  S
C1722      H1727   1.084       .  S
N1723      H1743   1.046       .  S
N1723      H1744   1.046       .  S
C1725      C1728   1.403       .  A
C1725      C1732   1.410       .  A
N1726      H1741   1.046       .  S
N1726      H1742   1.046       .  S
C1728      C1729   1.408       .  A
C1728      H1733   1.084       .  S
C1729      C1730   1.416       .  A
C1729      N1734   1.438       .  S
C1730      C1731   1.404       .  A
C1731      C1732   1.402       .  A
C1731      H1735   1.083       .  S
C1732      N1736   1.438       .  S
N1734      H1737   1.046       .  S
N1734      H1738   1.046       .  S
N1736      H1739   1.046       .  S
N1736      H1740   1.046       .  S
C1745      C1746   1.415       .  A
C1745      C1750   1.405       .  A
C1746      C1747   1.404       .  A
C1746      N1751   1.438       .  S
C1747      C1748   1.399       .  A
C1747      H1752   1.084       .  S
C1748      C1753   1.475       .  S
C1748      C1749   1.408       .  A
C1749      C1750   1.406       .  A
C1749      N1754   1.438       .  S
C1750      H1755   1.084       .  S
N1751      H1771   1.046       .  S
N1751      H1772   1.046       .  S
C1753      C1756   1.400       .  A
C1753      C1760   1.409       .  A
N1754      H1769   1.046       .  S
N1754      H1770   1.045       .  S
C1756      C1757   1.403       .  A
C1756      H1761   1.084       .  S
C1757      C1758   1.410       .  A
C1757      N1762   1.438       .  S
C1758      C1759   1.402       .  A
C1759      C1760   1.407       .  A
C1759      H1763   1.084       .  S
C1760      N1764   1.438       .  S
N1762      H1765   1.046       .  S
N1762      H1766   1.046       .  S
N1764      H1767   1.046       .  S
N1764      H1768   1.045       .  S
C1773      C1774   1.411       .  A
C1773      C1778   1.403       .  A
C1774      C1775   1.405       .  A
C1774      N1779   1.438       .  S
C1775      C1776   1.402       .  A
C1775      H1780   1.084       .  S
C1776      C1781   1.477       .  S
C1776      C1777   1.409       .  A
C1777      C1778   1.405       .  A
C1777      N1782   1.438       .  S
C1778      H1783   1.084       .  S
N1779      H1799   1.046       .  S
N1779      H1800   1.046       .  S
C1781      C1784   1.401       .  A
C1781      C1788   1.409       .  A
N1782      H1797   1.046       .  S
N1782      H1798   1.044       .  S
C1784      C1785   1.405       .  A
C1784      H1789   1.084       .  S
C1785      C1786   1.412       .  A
C1785      N1790   1.438       .  S
C1786      C1787   1.404       .  A
C1787      C1788   1.406       .  A
C1787      H1791   1.084       .  S
C1788      N1792   1.439       .  S
N1790      H1793   1.046       .  S
N1790      H1794   1.046       .  S
N1792      H1795   1.046       .  S
N1792      H1796   1.044       .  S
C1801      C1802   1.413       .  A
C1801      C1806   1.403       .  A
C1802      C1803   1.404       .  A
C1802      N1807   1.438       .  S
C1803      C1804   1.399       .  A
C1803      H1808   1.084       .  S
C1804      C1809   1.475       .  S
C1804      C1805   1.409       .  A
C1805      C1806   1.406       .  A
C1805      N1810   1.438       .  S
C1806      H1811   1.084       .  S
N1807      H1827   1.046       .  S
N1807      H1828   1.046       .  S
C1809      C1812   1.400       .  A
C1809      C1816   1.408       .  A
N1810      H1825   1.046       .  S
N1810      H1826   1.045       .  S
C1812      C1813   1.405       .  A
C1812      H1817   1.084       .  S
C1813      C1814   1.413       .  A
C1813      N1818   1.438       .  S
C1814      C1815   1.403       .  A
C1815      C1816   1.405       .  A
C1815      H1819   1.084       .  S
C1816      N1820   1.438       .  S
N1818      H1821   1.046       .  S
N1818      H1822   1.046       .  S
N1820      H1823   1.046       .  S
N1820      H1824   1.044       .  S
C1829      C1830   1.417       .  A
C1829      C1834   1.405       .  A
C1830      C1831   1.402       .  A
C1830      N1835   1.438       .  S
C1831      C1832   1.400       .  A
C1831      H1836   1.084       .  S
C1832      C1837   1.484       .  S
C1832      C1833   1.411       .  A
C1833      C1834   1.407       .  A
C1833      N1838   1.438       .  S
C1834      H1839   1.084       .  S
N1835      H1855   1.045       .  S
N1835      H1856   1.046       .  S
C1837      C1840   1.402       .  A
C1837      C1844   1.411       .  A
N1838      H1853   1.046       .  S
N1838      H1854   1.046       .  S
C1840      C1841   1.405       .  A
C1840      H1845   1.084       .  S
C1841      C1842   1.412       .  A
C1841      N1846   1.438       .  S
C1842      C1843   1.404       .  A
C1843      C1844   1.404       .  A
C1843      H1847   1.084       .  S
C1844      N1848   1.438       .  S
N1846      H1849   1.046       .  S
N1846      H1850   1.046       .  S
N1848      H1851   1.046       .  S
N1848      H1852   1.046       .  S
C1857      C1858   1.414       .  A
C1857      C1862   1.403       .  A
C1858      C1859   1.404       .  A
C1858      N1863   1.438       .  S
C1859      C1860   1.399       .  A
C1859      H1864   1.084       .  S
C1860      C1865   1.476       .  S
C1860      C1861   1.410       .  A
C1861      C1862   1.405       .  A
C1861      N1866   1.439       .  S
C1862      H1867   1.084       .  S
N1863      H1883   1.046       .  S
N1863      H1884   1.046       .  S
C1865      C1868   1.401       .  A
C1865      C1872   1.410       .  A
N1866      H1881   1.046       .  S
N1866      H1882   1.043       .  S
C1868      C1869   1.405       .  A
C1868      H1873   1.084       .  S
C1869      C1870   1.411       .  A
C1869      N1874   1.438       .  S
C1870      C1871   1.402       .  A
C1871      C1872   1.405       .  A
C1871      H1875   1.084       .  S
C1872      N1876   1.439       .  S
N1874      H1877   1.046       .  S
N1874      H1878   1.046       .  S
N1876      H1879   1.046       .  S
N1876      H1880   1.043       .  S
N1885      N1886   1.322       .  A
N1885      N1891   1.316       .  A
N1886      C1893   1.354       .  A
N1887      N1889   1.316       .  A
N1887      N1888   1.319       .  A
N1888      C1894   1.351       .  A
N1889      N1890   1.321       .  A
N1890      C1894   1.353       .  A
N1891      N1892   1.320       .  A
N1891     Mn2217   2.201       .  S
N1892      C1893   1.352       .  A
C1893      C2100   1.477       .  S
C1894      C2115   1.475       .  S
N1895      N1901   1.316       .  A
N1895      N1896   1.319       .  A
N1896      C1904   1.353       .  A
N1897      N1898   1.319       .  A
N1897      N1899   1.315       .  A
N1897     Mn1903   2.194   1_554  S
N1898      C1905   1.352       .  A
N1899      N1900   1.320       .  A
N1900      C1905   1.354       .  A
N1901      N1902   1.320       .  A
N1902      C1904   1.353       .  A
Mn1903     N2205   2.201       .  S
C1904      C2059   1.481       .  S
C1905      C2171   1.477       .  S
N1906      N1907   1.318       .  A
N1906      N1912   1.316       .  A
N1906     Mn1914   2.199       .  S
N1907      C1915   1.352       .  A
N1908      N1910   1.316       .  A
N1908      N1909   1.320       .  A
N1909      C1916   1.353       .  A
N1910      N1911   1.320       .  A
N1911      C1916   1.353       .  A
N1912      N1913   1.322       .  A
N1912     Mn2240   2.206       .  S
N1913      C1915   1.354       .  A
Mn1914    Cl2241   2.553       .  S
C1915      C2003   1.477       .  S
C1916      C2156   1.479       .  S
N1917      N1918   1.320       .  A
N1917      N1923   1.315       .  A
N1918      C1928   1.353       .  A
N1919      N1920   1.319       .  A
N1919      N1921   1.316       .  A
N1919     Mn1926   2.198       .  S
N1920      C1929   1.351       .  A
N1921      N1922   1.322       .  A
N1921     Mn1925   2.209       .  S
N1922      C1929   1.354       .  A
N1923      N1924   1.320       .  A
N1924      C1928   1.355       .  A
Mn1925    Cl1927   2.549       .  S
Mn1926     N2226   2.206   1_554  S
Mn1926    Cl1927   2.544       .  S
Cl1927    Mn2228   2.553   1_554  S
C1928      C2044   1.485       .  S
C1929      C1988   1.474       .  S
N1930      N1931   1.320       .  A
N1930      N1936   1.315       .  A
N1930     Mn1959   2.201       .  S
N1931      C1938   1.352       .  A
N1932      N1934   1.316       .  A
N1932      N1933   1.320       .  A
N1932     Mn1948   2.206       .  S
N1933      C1939   1.353       .  A
N1934      N1935   1.321       .  A
N1934     Mn1959   2.200       .  S
N1935      C1939   1.351       .  A
N1936      N1937   1.320       .  A
N1936     Mn1948   2.199       .  S
N1937      C1938   1.352       .  A
C1938      C2184   1.473       .  S
C1939      C2072   1.471       .  S
N1940      N1946   1.316       .  A
N1940      N1941   1.321       .  A
N1940     Mn1970   2.206       .  S
N1941      C1949   1.353       .  A
N1942      N1943   1.320       .  A
N1942      N1944   1.316       .  A
N1942     Mn1948   2.201       .  S
N1943      C1950   1.353       .  A
N1944      N1945   1.319       .  A
N1944     Mn1970   2.197       .  S
N1945      C1950   1.352       .  A
N1946      N1947   1.320       .  A
N1946     Mn1948   2.198       .  S
N1947      C1949   1.352       .  A
Mn1948    Cl1972   2.544       .  S
C1949      C2128   1.476       .  S
C1950      C2087   1.474       .  S
N1951      N1952   1.319       .  A
N1951      N1957   1.315       .  A
N1951     Mn1959   2.196       .  S
N1952      C1960   1.353       .  A
N1953      N1955   1.315       .  A
N1953      N1954   1.320       .  A
N1953     Mn1971   2.200       .  S
N1954      C1961   1.352       .  A
N1955      N1956   1.320       .  A
N1955     Mn1959   2.202       .  S
N1956      C1961   1.354       .  A
N1957      N1958   1.321       .  A
N1957     Mn1971   2.200       .  S
N1958      C1960   1.354       .  A
Mn1959    Cl1972   2.548       .  S
C1960      C1975   1.479       .  S
C1961      C2031   1.477       .  S
N1962      N1963   1.323       .  A
N1962      N1968   1.314       .  A
N1962     Mn1970   2.209       .  S
N1963      C1973   1.357       .  A
N1964      N1965   1.319       .  A
N1964      N1966   1.316       .  A
N1964     Mn1971   2.198       .  S
N1965      C1974   1.353       .  A
N1966      N1967   1.321       .  A
N1966     Mn1970   2.208       .  S
N1967      C1974   1.354       .  A
N1968      N1969   1.316       .  A
N1968     Mn1971   2.185       .  S
N1969      C1973   1.350       .  A
Mn1970    Cl1972   2.548       .  S
Mn1971    Cl1972   2.542       .  S
C1973      C2143   1.483       .  S
C1974      C2016   1.479       .  S
C1975      C1976   1.413       .  A
C1975      C1980   1.404       .  A
C1976      C1977   1.407       .  A
C1976      N1981   1.438       .  S
C1977      C1978   1.401       .  A
C1977      H1982   1.084       .  S
C1978      C1983   1.477       .  S
C1978      C1979   1.409       .  A
C1979      C1980   1.403       .  A
C1979      N1984   1.439       .  S
C1980      H1985   1.084       .  S
N1981      H2001   1.046       .  S
N1981      H2002   1.046       .  S
C1983      C1986   1.402       .  A
C1983      C1990   1.409       .  A
N1984      H1999   1.046       .  S
N1984      H2000   1.044       .  S
C1986      C1987   1.407       .  A
C1986      H1991   1.084       .  S
C1987      C1988   1.409       .  A
C1987      N1992   1.437       .  S
C1988      C1989   1.403       .  A
C1989      C1990   1.404       .  A
C1989      H1993   1.084       .  S
C1990      N1994   1.439       .  S
N1992      H1995   1.046       .  S
N1992      H1996   1.046       .  S
N1994      H1997   1.046       .  S
N1994      H1998   1.044       .  S
C2003      C2004   1.412       .  A
C2003      C2008   1.403       .  A
C2004      C2005   1.408       .  A
C2004      N2009   1.438       .  S
C2005      C2006   1.403       .  A
C2005      H2010   1.084       .  S
C2006      C2011   1.478       .  S
C2006      C2007   1.409       .  A
C2007      C2008   1.403       .  A
C2007      N2012   1.439       .  S
C2008      H2013   1.084       .  S
N2009      H2029   1.046       .  S
N2009      H2030   1.046       .  S
C2011      C2014   1.401       .  A
C2011      C2018   1.409       .  A
N2012      H2027   1.046       .  S
N2012      H2028   1.043       .  S
C2014      C2015   1.407       .  A
C2014      H2019   1.084       .  S
C2015      C2016   1.413       .  A
C2015      N2020   1.438       .  S
C2016      C2017   1.404       .  A
C2017      C2018   1.405       .  A
C2017      H2021   1.084       .  S
C2018      N2022   1.439       .  S
N2020      H2023   1.046       .  S
N2020      H2024   1.045       .  S
N2022      H2025   1.046       .  S
N2022      H2026   1.043       .  S
C2031      C2032   1.411       .  A
C2031      C2036   1.405       .  A
C2032      C2033   1.402       .  A
C2032      N2037   1.438       .  S
C2033      C2034   1.402       .  A
C2033      H2038   1.084       .  S
C2034      C2039   1.485       .  S
C2034      C2035   1.412       .  A
C2035      C2036   1.408       .  A
C2035      N2040   1.438       .  S
C2036      H2041   1.084       .  S
N2037      H2057   1.046       .  S
N2037      H2058   1.046       .  S
C2039      C2042   1.403       .  A
C2039      C2046   1.410       .  A
N2040      H2055   1.046       .  S
N2040      H2056   1.046       .  S
C2042      C2043   1.408       .  A
C2042      H2047   1.084       .  S
C2043      C2044   1.416       .  A
C2043      N2048   1.438       .  S
C2044      C2045   1.404       .  A
C2045      C2046   1.402       .  A
C2045      H2049   1.083       .  S
C2046      N2050   1.438       .  S
N2048      H2051   1.046       .  S
N2048      H2052   1.046       .  S
N2050      H2053   1.046       .  S
N2050      H2054   1.046       .  S
C2059      C2060   1.415       .  A
C2059      C2064   1.405       .  A
C2060      C2061   1.404       .  A
C2060      N2065   1.438       .  S
C2061      C2062   1.399       .  A
C2061      H2066   1.084       .  S
C2062      C2067   1.475       .  S
C2062      C2063   1.408       .  A
C2063      C2064   1.406       .  A
C2063      N2068   1.438       .  S
C2064      H2069   1.084       .  S
N2065      H2085   1.046       .  S
N2065      H2086   1.046       .  S
C2067      C2070   1.400       .  A
C2067      C2074   1.409       .  A
N2068      H2083   1.046       .  S
N2068      H2084   1.045       .  S
C2070      C2071   1.403       .  A
C2070      H2075   1.084       .  S
C2071      C2072   1.410       .  A
C2071      N2076   1.438       .  S
C2072      C2073   1.402       .  A
C2073      C2074   1.407       .  A
C2073      H2077   1.084       .  S
C2074      N2078   1.438       .  S
N2076      H2079   1.046       .  S
N2076      H2080   1.046       .  S
N2078      H2081   1.046       .  S
N2078      H2082   1.045       .  S
C2087      C2088   1.411       .  A
C2087      C2092   1.403       .  A
C2088      C2089   1.405       .  A
C2088      N2093   1.438       .  S
C2089      C2090   1.402       .  A
C2089      H2094   1.084       .  S
C2090      C2095   1.477       .  S
C2090      C2091   1.409       .  A
C2091      C2092   1.405       .  A
C2091      N2096   1.438       .  S
C2092      H2097   1.084       .  S
N2093      H2113   1.046       .  S
N2093      H2114   1.046       .  S
C2095      C2098   1.401       .  A
C2095      C2102   1.409       .  A
N2096      H2111   1.046       .  S
N2096      H2112   1.044       .  S
C2098      C2099   1.405       .  A
C2098      H2103   1.084       .  S
C2099      C2100   1.412       .  A
C2099      N2104   1.438       .  S
C2100      C2101   1.404       .  A
C2101      C2102   1.406       .  A
C2101      H2105   1.084       .  S
C2102      N2106   1.439       .  S
N2104      H2107   1.046       .  S
N2104      H2108   1.046       .  S
N2106      H2109   1.046       .  S
N2106      H2110   1.044       .  S
C2115      C2116   1.413       .  A
C2115      C2120   1.403       .  A
C2116      C2117   1.404       .  A
C2116      N2121   1.438       .  S
C2117      C2118   1.399       .  A
C2117      H2122   1.084       .  S
C2118      C2123   1.475       .  S
C2118      C2119   1.409       .  A
C2119      C2120   1.406       .  A
C2119      N2124   1.438       .  S
C2120      H2125   1.084       .  S
N2121      H2141   1.046       .  S
N2121      H2142   1.046       .  S
C2123      C2126   1.400       .  A
C2123      C2130   1.408       .  A
N2124      H2139   1.046       .  S
N2124      H2140   1.045       .  S
C2126      C2127   1.405       .  A
C2126      H2131   1.084       .  S
C2127      C2128   1.413       .  A
C2127      N2132   1.438       .  S
C2128      C2129   1.403       .  A
C2129      C2130   1.405       .  A
C2129      H2133   1.084       .  S
C2130      N2134   1.438       .  S
N2132      H2135   1.046       .  S
N2132      H2136   1.046       .  S
N2134      H2137   1.046       .  S
N2134      H2138   1.044       .  S
C2143      C2144   1.417       .  A
C2143      C2148   1.405       .  A
C2144      C2145   1.402       .  A
C2144      N2149   1.438       .  S
C2145      C2146   1.400       .  A
C2145      H2150   1.084       .  S
C2146      C2151   1.484       .  S
C2146      C2147   1.411       .  A
C2147      C2148   1.407       .  A
C2147      N2152   1.438       .  S
C2148      H2153   1.084       .  S
N2149      H2169   1.045       .  S
N2149      H2170   1.046       .  S
C2151      C2154   1.402       .  A
C2151      C2158   1.411       .  A
N2152      H2167   1.046       .  S
N2152      H2168   1.046       .  S
C2154      C2155   1.405       .  A
C2154      H2159   1.084       .  S
C2155      C2156   1.412       .  A
C2155      N2160   1.438       .  S
C2156      C2157   1.404       .  A
C2157      C2158   1.404       .  A
C2157      H2161   1.084       .  S
C2158      N2162   1.438       .  S
N2160      H2163   1.046       .  S
N2160      H2164   1.046       .  S
N2162      H2165   1.046       .  S
N2162      H2166   1.046       .  S
C2171      C2172   1.414       .  A
C2171      C2176   1.403       .  A
C2172      C2173   1.404       .  A
C2172      N2177   1.438       .  S
C2173      C2174   1.399       .  A
C2173      H2178   1.084       .  S
C2174      C2179   1.476       .  S
C2174      C2175   1.410       .  A
C2175      C2176   1.405       .  A
C2175      N2180   1.439       .  S
C2176      H2181   1.084       .  S
N2177      H2197   1.046       .  S
N2177      H2198   1.046       .  S
C2179      C2182   1.401       .  A
C2179      C2186   1.410       .  A
N2180      H2195   1.046       .  S
N2180      H2196   1.043       .  S
C2182      C2183   1.405       .  A
C2182      H2187   1.084       .  S
C2183      C2184   1.411       .  A
C2183      N2188   1.438       .  S
C2184      C2185   1.402       .  A
C2185      C2186   1.405       .  A
C2185      H2189   1.084       .  S
C2186      N2190   1.439       .  S
N2188      H2191   1.046       .  S
N2188      H2192   1.046       .  S
N2190      H2193   1.046       .  S
N2190      H2194   1.043       .  S
N2199      N2200   1.322       .  A
N2199      N2205   1.316       .  A
N2200      C2207   1.354       .  A
N2201      N2203   1.316       .  A
N2201      N2202   1.319       .  A
N2202      C2208   1.351       .  A
N2203      N2204   1.321       .  A
N2204      C2208   1.353       .  A
N2205      N2206   1.320       .  A
N2206      C2207   1.352       .  A
C2207      C2414   1.477       .  S
C2208      C2429   1.475       .  S
N2209      N2215   1.316       .  A
N2209      N2210   1.319       .  A
N2210      C2218   1.353       .  A
N2211      N2212   1.319       .  A
N2211      N2213   1.315       .  A
N2211     Mn2217   2.194       .  S
N2212      C2219   1.352       .  A
N2213      N2214   1.320       .  A
N2214      C2219   1.354       .  A
N2215      N2216   1.320       .  A
N2216      C2218   1.354       .  A
C2218      C2373   1.481       .  S
C2219      C2485   1.477       .  S
N2220      N2221   1.318       .  A
N2220      N2226   1.316       .  A
N2220     Mn2228   2.199       .  S
N2221      C2229   1.352       .  A
N2222      N2224   1.316       .  A
N2222      N2223   1.320       .  A
N2223      C2230   1.352       .  A
N2224      N2225   1.320       .  A
N2225      C2230   1.353       .  A
N2226      N2227   1.322       .  A
N2227      C2229   1.354       .  A
C2229      C2317   1.477       .  S
C2230      C2470   1.479       .  S
N2231      N2232   1.320       .  A
N2231      N2237   1.315       .  A
N2232      C2242   1.353       .  A
N2233      N2234   1.319       .  A
N2233      N2235   1.316       .  A
N2233     Mn2240   2.198       .  S
N2234      C2243   1.351       .  A
N2235      N2236   1.322       .  A
N2235     Mn2239   2.209       .  S
N2236      C2243   1.354       .  A
N2237      N2238   1.320       .  A
N2238      C2242   1.355       .  A
Mn2239    Cl2241   2.549       .  S
Mn2240    Cl2241   2.544       .  S
C2242      C2358   1.485       .  S
C2243      C2302   1.474       .  S
N2244      N2245   1.320       .  A
N2244      N2250   1.315       .  A
N2244     Mn2273   2.201       .  S
N2245      C2252   1.352       .  A
N2246      N2248   1.316       .  A
N2246      N2247   1.320       .  A
N2246     Mn2262   2.206       .  S
N2247      C2253   1.353       .  A
N2248      N2249   1.321       .  A
N2248     Mn2273   2.200       .  S
N2249      C2253   1.351       .  A
N2250      N2251   1.320       .  A
N2250     Mn2262   2.199       .  S
N2251      C2252   1.352       .  A
C2252      C2498   1.473       .  S
C2253      C2386   1.471       .  S
N2254      N2260   1.316       .  A
N2254      N2255   1.321       .  A
N2254     Mn2284   2.206       .  S
N2255      C2263   1.353       .  A
N2256      N2257   1.320       .  A
N2256      N2258   1.316       .  A
N2256     Mn2262   2.201       .  S
N2257      C2264   1.353       .  A
N2258      N2259   1.319       .  A
N2258     Mn2284   2.197       .  S
N2259      C2264   1.352       .  A
N2260      N2261   1.320       .  A
N2260     Mn2262   2.198       .  S
N2261      C2263   1.352       .  A
Mn2262    Cl2286   2.544       .  S
C2263      C2442   1.476       .  S
C2264      C2401   1.474       .  S
N2265      N2266   1.319       .  A
N2265      N2271   1.315       .  A
N2265     Mn2273   2.196       .  S
N2266      C2274   1.353       .  A
N2267      N2269   1.315       .  A
N2267      N2268   1.320       .  A
N2267     Mn2285   2.200       .  S
N2268      C2275   1.352       .  A
N2269      N2270   1.320       .  A
N2269     Mn2273   2.202       .  S
N2270      C2275   1.354       .  A
N2271      N2272   1.321       .  A
N2271     Mn2285   2.200       .  S
N2272      C2274   1.354       .  A
Mn2273    Cl2286   2.548       .  S
C2274      C2289   1.479       .  S
C2275      C2345   1.477       .  S
N2276      N2277   1.323       .  A
N2276      N2282   1.314       .  A
N2276     Mn2284   2.209       .  S
N2277      C2287   1.357       .  A
N2278      N2279   1.319       .  A
N2278      N2280   1.316       .  A
N2278     Mn2285   2.198       .  S
N2279      C2288   1.353       .  A
N2280      N2281   1.321       .  A
N2280     Mn2284   2.208       .  S
N2281      C2288   1.354       .  A
N2282      N2283   1.316       .  A
N2282     Mn2285   2.185       .  S
N2283      C2287   1.350       .  A
Mn2284    Cl2286   2.548       .  S
Mn2285    Cl2286   2.542       .  S
C2287      C2457   1.483       .  S
C2288      C2330   1.479       .  S
C2289      C2290   1.413       .  A
C2289      C2294   1.404       .  A
C2290      C2291   1.407       .  A
C2290      N2295   1.438       .  S
C2291      C2292   1.401       .  A
C2291      H2296   1.084       .  S
C2292      C2297   1.477       .  S
C2292      C2293   1.409       .  A
C2293      C2294   1.403       .  A
C2293      N2298   1.439       .  S
C2294      H2299   1.084       .  S
N2295      H2315   1.046       .  S
N2295      H2316   1.046       .  S
C2297      C2300   1.402       .  A
C2297      C2304   1.409       .  A
N2298      H2313   1.046       .  S
N2298      H2314   1.044       .  S
C2300      C2301   1.407       .  A
C2300      H2305   1.084       .  S
C2301      C2302   1.409       .  A
C2301      N2306   1.437       .  S
C2302      C2303   1.403       .  A
C2303      C2304   1.404       .  A
C2303      H2307   1.084       .  S
C2304      N2308   1.439       .  S
N2306      H2309   1.046       .  S
N2306      H2310   1.046       .  S
N2308      H2311   1.046       .  S
N2308      H2312   1.044       .  S
C2317      C2318   1.412       .  A
C2317      C2322   1.403       .  A
C2318      C2319   1.408       .  A
C2318      N2323   1.438       .  S
C2319      C2320   1.403       .  A
C2319      H2324   1.084       .  S
C2320      C2325   1.478       .  S
C2320      C2321   1.409       .  A
C2321      C2322   1.403       .  A
C2321      N2326   1.439       .  S
C2322      H2327   1.084       .  S
N2323      H2343   1.046       .  S
N2323      H2344   1.046       .  S
C2325      C2328   1.401       .  A
C2325      C2332   1.409       .  A
N2326      H2341   1.046       .  S
N2326      H2342   1.043       .  S
C2328      C2329   1.407       .  A
C2328      H2333   1.084       .  S
C2329      C2330   1.413       .  A
C2329      N2334   1.438       .  S
C2330      C2331   1.404       .  A
C2331      C2332   1.405       .  A
C2331      H2335   1.084       .  S
C2332      N2336   1.439       .  S
N2334      H2337   1.046       .  S
N2334      H2338   1.045       .  S
N2336      H2339   1.046       .  S
N2336      H2340   1.043       .  S
C2345      C2346   1.411       .  A
C2345      C2350   1.405       .  A
C2346      C2347   1.402       .  A
C2346      N2351   1.438       .  S
C2347      C2348   1.402       .  A
C2347      H2352   1.084       .  S
C2348      C2353   1.485       .  S
C2348      C2349   1.412       .  A
C2349      C2350   1.408       .  A
C2349      N2354   1.438       .  S
C2350      H2355   1.084       .  S
N2351      H2371   1.046       .  S
N2351      H2372   1.046       .  S
C2353      C2356   1.403       .  A
C2353      C2360   1.410       .  A
N2354      H2369   1.046       .  S
N2354      H2370   1.046       .  S
C2356      C2357   1.408       .  A
C2356      H2361   1.084       .  S
C2357      C2358   1.416       .  A
C2357      N2362   1.438       .  S
C2358      C2359   1.404       .  A
C2359      C2360   1.402       .  A
C2359      H2363   1.083       .  S
C2360      N2364   1.438       .  S
N2362      H2365   1.046       .  S
N2362      H2366   1.046       .  S
N2364      H2367   1.046       .  S
N2364      H2368   1.046       .  S
C2373      C2374   1.415       .  A
C2373      C2378   1.405       .  A
C2374      C2375   1.404       .  A
C2374      N2379   1.438       .  S
C2375      C2376   1.399       .  A
C2375      H2380   1.084       .  S
C2376      C2381   1.475       .  S
C2376      C2377   1.408       .  A
C2377      C2378   1.406       .  A
C2377      N2382   1.438       .  S
C2378      H2383   1.084       .  S
N2379      H2399   1.046       .  S
N2379      H2400   1.046       .  S
C2381      C2384   1.400       .  A
C2381      C2388   1.409       .  A
N2382      H2397   1.046       .  S
N2382      H2398   1.045       .  S
C2384      C2385   1.403       .  A
C2384      H2389   1.084       .  S
C2385      C2386   1.410       .  A
C2385      N2390   1.438       .  S
C2386      C2387   1.402       .  A
C2387      C2388   1.407       .  A
C2387      H2391   1.084       .  S
C2388      N2392   1.438       .  S
N2390      H2393   1.046       .  S
N2390      H2394   1.046       .  S
N2392      H2395   1.046       .  S
N2392      H2396   1.045       .  S
C2401      C2402   1.411       .  A
C2401      C2406   1.403       .  A
C2402      C2403   1.405       .  A
C2402      N2407   1.438       .  S
C2403      C2404   1.402       .  A
C2403      H2408   1.084       .  S
C2404      C2409   1.477       .  S
C2404      C2405   1.409       .  A
C2405      C2406   1.405       .  A
C2405      N2410   1.438       .  S
C2406      H2411   1.084       .  S
N2407      H2427   1.046       .  S
N2407      H2428   1.046       .  S
C2409      C2412   1.401       .  A
C2409      C2416   1.409       .  A
N2410      H2425   1.046       .  S
N2410      H2426   1.044       .  S
C2412      C2413   1.405       .  A
C2412      H2417   1.084       .  S
C2413      C2414   1.412       .  A
C2413      N2418   1.438       .  S
C2414      C2415   1.404       .  A
C2415      C2416   1.406       .  A
C2415      H2419   1.084       .  S
C2416      N2420   1.439       .  S
N2418      H2421   1.046       .  S
N2418      H2422   1.046       .  S
N2420      H2423   1.046       .  S
N2420      H2424   1.044       .  S
C2429      C2430   1.413       .  A
C2429      C2434   1.403       .  A
C2430      C2431   1.404       .  A
C2430      N2435   1.438       .  S
C2431      C2432   1.399       .  A
C2431      H2436   1.084       .  S
C2432      C2437   1.475       .  S
C2432      C2433   1.409       .  A
C2433      C2434   1.406       .  A
C2433      N2438   1.438       .  S
C2434      H2439   1.084       .  S
N2435      H2455   1.046       .  S
N2435      H2456   1.046       .  S
C2437      C2440   1.400       .  A
C2437      C2444   1.408       .  A
N2438      H2453   1.046       .  S
N2438      H2454   1.045       .  S
C2440      C2441   1.405       .  A
C2440      H2445   1.084       .  S
C2441      C2442   1.413       .  A
C2441      N2446   1.438       .  S
C2442      C2443   1.403       .  A
C2443      C2444   1.405       .  A
C2443      H2447   1.084       .  S
C2444      N2448   1.438       .  S
N2446      H2449   1.046       .  S
N2446      H2450   1.046       .  S
N2448      H2451   1.046       .  S
N2448      H2452   1.044       .  S
C2457      C2458   1.417       .  A
C2457      C2462   1.405       .  A
C2458      C2459   1.402       .  A
C2458      N2463   1.438       .  S
C2459      C2460   1.400       .  A
C2459      H2464   1.084       .  S
C2460      C2465   1.484       .  S
C2460      C2461   1.411       .  A
C2461      C2462   1.407       .  A
C2461      N2466   1.438       .  S
C2462      H2467   1.084       .  S
N2463      H2483   1.045       .  S
N2463      H2484   1.046       .  S
C2465      C2468   1.402       .  A
C2465      C2472   1.411       .  A
N2466      H2481   1.046       .  S
N2466      H2482   1.046       .  S
C2468      C2469   1.405       .  A
C2468      H2473   1.084       .  S
C2469      C2470   1.412       .  A
C2469      N2474   1.438       .  S
C2470      C2471   1.404       .  A
C2471      C2472   1.404       .  A
C2471      H2475   1.084       .  S
C2472      N2476   1.438       .  S
N2474      H2477   1.046       .  S
N2474      H2478   1.046       .  S
N2476      H2479   1.046       .  S
N2476      H2480   1.046       .  S
C2485      C2486   1.414       .  A
C2485      C2490   1.403       .  A
C2486      C2487   1.404       .  A
C2486      N2491   1.438       .  S
C2487      C2488   1.399       .  A
C2487      H2492   1.084       .  S
C2488      C2493   1.476       .  S
C2488      C2489   1.410       .  A
C2489      C2490   1.405       .  A
C2489      N2494   1.439       .  S
C2490      H2495   1.084       .  S
N2491      H2511   1.046       .  S
N2491      H2512   1.046       .  S
C2493      C2496   1.401       .  A
C2493      C2500   1.410       .  A
N2494      H2509   1.046       .  S
N2494      H2510   1.043       .  S
C2496      C2497   1.405       .  A
C2496      H2501   1.084       .  S
C2497      C2498   1.411       .  A
C2497      N2502   1.438       .  S
C2498      C2499   1.402       .  A
C2499      C2500   1.405       .  A
C2499      H2503   1.084       .  S
C2500      N2504   1.439       .  S
N2502      H2505   1.046       .  S
N2502      H2506   1.046       .  S
N2504      H2507   1.046       .  S
N2504      H2508   1.043       .  S
