geometry optimzed in LAMMPS
_audit_creation_date              2020-11-30 
_audit_creation_method            'lammps2cif' 
_symmetry_space_group_name_H-M    'P1' 
_symmetry_Int_Tables_number       1 
_symmetry_cell_setting            triclinic 
loop_ 
_symmetry_equiv_pos_as_xyz 
  x,y,z 
_cell_length_a                    21.89232108 
_cell_length_b                    43.60500870197096 
_cell_length_c                    26.944096648997345 
_cell_angle_alpha                 90.50152531088047 
_cell_angle_beta                  90.37623048386483 
_cell_angle_gamma                 89.15164888529607 
loop_ 
_atom_site_label 
_atom_site_type_symbol 
_atom_site_fract_x 
_atom_site_fract_y 
_atom_site_fract_z 
_atom_site_charge 
In1        In  0.30725090  0.12722359  0.12508220     1.36900
C2          C  0.35474043  0.07492747  0.15880414     0.77800
O3          O  0.38525710  0.15209067  0.08965045    -0.60700
O4          O  0.30556699  0.17771593  0.10922317    -0.51600
C5          C  0.25081159  0.11313788  0.04131737     0.70400
O6          O  0.30818088  0.11301426  0.04570762    -0.46400
C7          C  0.25585023  0.14201645  0.21067136     0.75100
O8          O  0.30243155  0.07674562  0.13926812    -0.58300
O9          O  0.31298468  0.14147001  0.20471993    -0.48400
O10         O  0.38514434  0.09930841  0.15738647    -0.54700
C11         C  0.35659066  0.17741697  0.08783335     0.85300
O12         O  0.22179976  0.11910074  0.08072672    -0.56600
O13         O  0.22487236  0.13708058  0.17174995    -0.59900
In14       In  0.66041096  0.20172556  0.87411850     1.36900
C15         C  0.62926646  0.17028681  0.79341691     0.77800
O16         O  0.56241362  0.19617614  0.89614366    -0.60700
O17         O  0.60129640  0.24030318  0.90482426    -0.51600
C18         C  0.69779628  0.17838787  0.95957533     0.70400
O19         O  0.68561008  0.16189041  0.92213980    -0.46400
C20         C  0.75895722  0.22807427  0.83585645     0.75100
O21         O  0.65648231  0.15816037  0.82989942    -0.58300
O22         O  0.70746674  0.24156850  0.83690467    -0.48400
O23         O  0.61565283  0.19831097  0.79924073    -0.54700
C24         C  0.55554100  0.22342960  0.91128710     0.85300
O25         O  0.69239128  0.20687924  0.95258993    -0.56600
O26         O  0.76030126  0.20235026  0.85654041    -0.59900
In27       In  0.15421902  0.30243238  0.87545664     1.36900
C28         C  0.11875365  0.33067460  0.95812115     0.77800
O29         O  0.05536261  0.30690712  0.85345938    -0.60700
O30         O  0.09943951  0.26373293  0.84187499    -0.51600
C31         C  0.18788729  0.32821945  0.79204703     0.70400
O32         O  0.17635831  0.34383527  0.83065860    -0.46400
C33         C  0.25654075  0.27681910  0.91221731     0.75100
O34         O  0.13804629  0.34491037  0.92090325    -0.58300
O35         O  0.20713900  0.26228960  0.90871921    -0.48400
O36         O  0.11566813  0.30199565  0.95194531    -0.54700
C37         C  0.05165775  0.28002935  0.83631003     0.85300
O38         O  0.18509234  0.29955744  0.79715768    -0.56600
O39         O  0.25409574  0.30349210  0.89479635    -0.59900
In40       In  0.40597011  0.24893270  0.99678984     1.36900
C41         C  0.50024549  0.23375729  0.93784028     0.77800
O42         O  0.38698877  0.29503459  0.03273159    -0.60700
O43         O  0.46894280  0.27149156  0.05208446    -0.51600
C44         C  0.31149400  0.26500553  0.93795645     0.70400
O45         O  0.36030153  0.27986610  0.94044528    -0.46400
C46         C  0.37764947  0.20362793  0.05893089     0.75100
O47         O  0.49763361  0.25849348  0.96218283    -0.58300
O48         O  0.34990168  0.22912185  0.05860743    -0.48400
O49         O  0.45313829  0.21761074  0.94105829    -0.54700
C50         C  0.43658492  0.29549037  0.05654235     0.85300
O51         O  0.31248533  0.24055520  0.96243764    -0.56600
O52         O  0.42174819  0.20171409  0.02930433    -0.59900
In53       In  0.65437513  0.04952790  0.37133874     1.36900
C54         C  0.68893841  0.07635051  0.28871808     0.77800
O55         O  0.75312824  0.05240982  0.39174880    -0.60700
O56         O  0.70907447  0.01011452  0.40440791    -0.51600
C57         C  0.61656688  0.07536133  0.45546690     0.70400
O58         O  0.63417685  0.09077496  0.41888456    -0.46400
C59         C  0.55317423  0.02658862  0.33152766     0.75100
O60         O  0.67613778  0.09151399  0.32756263    -0.58300
O61         O  0.60121442  0.01044551  0.33705203    -0.48400
O62         O  0.68686058  0.04759965  0.29319866    -0.54700
C63         C  0.75696219  0.02576786  0.40911095     0.85300
O64         O  0.61615015  0.04676048  0.44782538    -0.56600
O65         O  0.55629684  0.05348838  0.34866870    -0.59900
In66       In  0.50254852  0.37381871  0.12255805     1.36900
C67         C  0.45747048  0.32264758  0.08392419     0.77800
O68         O  0.42353124  0.40226519  0.15287138    -0.60700
O69         O  0.50943564  0.42349216  0.14355826    -0.51600
C70         C  0.54866571  0.35539466  0.20838252     0.70400
O71         O  0.49209822  0.35796958  0.20007362    -0.46400
C72         C  0.55508474  0.39008400  0.03901013     0.75100
O73         O  0.51123348  0.32440389  0.10055058    -0.58300
O74         O  0.49796036  0.38826329  0.04374838    -0.48400
O75         O  0.42498903  0.34664667  0.08971338    -0.54700
C76         C  0.45541951  0.42596081  0.15913013     0.85300
O77         O  0.58223009  0.36061291  0.17143815    -0.56600
O78         O  0.58572665  0.38542399  0.07828111    -0.59900
In79       In  0.80666843  0.37823779  0.62259709     1.36900
C80         C  0.85348439  0.42884766  0.58493424     0.77800
O81         O  0.88544578  0.35084908  0.65494888    -0.60700
O82         O  0.80095437  0.32863194  0.64165554    -0.51600
C83         C  0.75869817  0.39561056  0.70829482     0.70400
O84         O  0.81548358  0.39369954  0.70115214    -0.46400
C85         C  0.75210558  0.36052725  0.53962127     0.75100
O86         O  0.80038287  0.42787741  0.60253855    -0.58300
O87         O  0.80937651  0.36183741  0.54442066    -0.48400
O88         O  0.88454002  0.40432633  0.58920269    -0.54700
C89         C  0.85411352  0.32693418  0.65962579     0.85300
O90         O  0.72612817  0.39057360  0.67022223    -0.56600
O91         O  0.72223204  0.36681789  0.57850389    -0.59900
In92       In  0.90398957  0.00159070  0.49775932     1.36900
C93         C  0.81147961  0.01531531  0.43639190     0.77800
O94         O  0.92348729  0.45561499  0.53335032    -0.60700
O95         O  0.84333416  0.47998599  0.55442914    -0.51600
C96         C  0.99957298  0.48696057  0.43976773     0.70400
O97         O  0.95340965  0.47022335  0.44367199    -0.46400
C98         C  0.92937070  0.04846135  0.55868026     0.75100
O99         O  0.81320103  0.99105372  0.46127862    -0.58300
O100        O  0.96392895  0.02530897  0.55364143    -0.48400
O101        O  0.85873707  0.03132604  0.44004148    -0.54700
C102        C  0.87482951  0.45571121  0.55795801     0.85300
O103        O  0.99535674  0.51211539  0.46286882    -0.56600
O104        O  0.87992886  0.04704484  0.53477787    -0.59900
In105      In  0.16073071  0.45434139  0.37781214     1.36900
C106        C  0.19735958  0.43020211  0.46299758     0.77800
O107        O  0.26031925  0.45312639  0.35875948    -0.60700
O108        O  0.20995564  0.99319649  0.33948267    -0.51600
C109        C  0.12721131  0.42384890  0.29703490     0.70400
O110        O  0.15018865  0.41067902  0.33446102    -0.46400
C111        C  0.05551239  0.47668550  0.41391040     0.75100
O112        O  0.18689749  0.41408803  0.42478238    -0.58300
O113        O  0.10202825  0.99326543  0.40882210    -0.48400
O114        O  0.19105750  0.45876006  0.45689066    -0.54700
C115        C  0.26015592  0.47854427  0.33711470     0.85300
O116        O  0.11916455  0.45241936  0.30218279    -0.56600
O117        O  0.06203523  0.44957208  0.39805547    -0.59900
In118      In  0.40461785  0.00106282  0.24572549     1.36900
C119        C  0.31303050  0.48844437  0.30801578     0.77800
O120        O  0.42348532  0.04700862  0.21157294    -0.60700
O121        O  0.34448976  0.02346634  0.18767066    -0.51600
C122        C  0.49887370  0.01610650  0.30432274     0.70400
O123        O  0.45129245  0.03251117  0.30019321    -0.46400
C124        C  0.43391952  0.45353027  0.18609870     0.75100
O125        O  0.36227396  0.47315607  0.30636211    -0.58300
O126        O  0.46492257  0.47757821  0.18894333    -0.48400
O127        O  0.31153758  0.51127445  0.27977009    -0.54700
C128        C  0.37564221  0.04749048  0.18548627     0.85300
O129        O  0.49719280  0.99109866  0.28069220    -0.56600
O130        O  0.38574769  0.45436300  0.21137022    -0.59900
In131      In  0.99305752  0.12744799  0.62350204     1.36900
C132        C  0.94835906  0.07581070  0.58647919     0.77800
O133        O  0.91637795  0.15598991  0.65639920    -0.60700
O134        O  0.00113975  0.17727724  0.64130734    -0.51600
C135        C  0.04513398  0.11100743  0.70793014     0.70400
O136        O  0.98796158  0.11342127  0.70253716    -0.46400
C137        C  0.04416487  0.14290482  0.53939027     0.75100
O138        O  0.00170945  0.07791431  0.60372149    -0.58300
O139        O  0.98698535  0.14224441  0.54496644    -0.48400
O140        O  0.91525734  0.09966318  0.59164837    -0.54700
C141        C  0.94879052  0.17970731  0.66014733     0.85300
O142        O  0.07564274  0.11560898  0.66910916    -0.56600
O143        O  0.07533376  0.13763404  0.57813694    -0.59900
In144      In  0.90411283  0.25428865  0.74911257     1.36900
C145        C  0.81230458  0.23962647  0.80923303     0.77800
O146        O  0.92413285  0.29943516  0.71220257    -0.60700
O147        O  0.84227614  0.27685071  0.69293457    -0.51600
C148        C  0.99738889  0.26961114  0.80877250     0.70400
O149        O  0.94953552  0.28586269  0.80454804    -0.46400
C150        C  0.93011056  0.20713528  0.68832822     0.75100
O151        O  0.86260299  0.22520380  0.80833475    -0.58300
O152        O  0.96271726  0.23063074  0.69142601    -0.48400
O153        O  0.81038143  0.26310093  0.78233999    -0.54700
C154        C  0.87490856  0.30012608  0.68785987     0.85300
O155        O  0.99629312  0.24471200  0.78475734    -0.56600
O156        O  0.88287862  0.20821975  0.71455471    -0.59900
C157        C  0.65662269  0.32787192  0.30922345    -0.01800
C158        C  0.62935439  0.34073558  0.35208205     0.06800
C159        C  0.57283352  0.35602723  0.34784787    -0.07800
C160        C  0.54460334  0.35985190  0.30159008     0.04200
C161        C  0.57348463  0.34844954  0.25823873    -0.15000
C162        C  0.62888438  0.33204726  0.26268515    -0.08300
C163        C  0.66266290  0.34251301  0.40015947     0.05100
C164        C  0.71714769  0.35898957  0.40181067    -0.09500
C165        C  0.74709649  0.36466500  0.44678513     0.00100
C166        C  0.72270624  0.35353965  0.49144763     0.00000
C167        C  0.66838713  0.33680297  0.48992472    -0.13000
C168        C  0.63829025  0.33119460  0.44467089     0.00500
C169        C  0.80005190  0.38406993  0.44642151     0.39800
C170        C  0.58245586  0.31397909  0.44470338     0.36400
C171        C  0.71332476  0.31062622  0.31226356     0.36100
C172        C  0.48851339  0.37771146  0.29946587     0.36900
N173        N  0.84214059  0.39982325  0.44644661    -0.43900
N174        N  0.53759050  0.30026931  0.44458662    -0.44400
N175        N  0.44369281  0.39208653  0.29767364    -0.41700
N176        N  0.75868189  0.29675512  0.31500298    -0.43200
H177        H  0.65095067  0.32287555  0.22970332     0.13000
H178        H  0.55217984  0.36640126  0.38054545     0.09500
H179        H  0.73502694  0.36857004  0.36793434     0.10600
H180        H  0.64933007  0.32826315  0.52408876     0.16400
C181        C  0.66431457  0.41938197  0.94268190    -0.01800
C182        C  0.64145557  0.40561879  0.89883265     0.06800
C183        C  0.58968117  0.38715708  0.90143458    -0.07800
C184        C  0.56066922  0.38220172  0.94662606     0.04200
C185        C  0.58357085  0.39587301  0.99055360    -0.15000
C186        C  0.63545952  0.41429641  0.98813311    -0.08300
C187        C  0.67380341  0.40745970  0.85067658     0.05100
C188        C  0.73341568  0.39544676  0.84757968    -0.09500
C189        C  0.76283033  0.39245079  0.80185813     0.00100
C190        C  0.73232781  0.40171014  0.75786572     0.00000
C191        C  0.67341275  0.41468345  0.76117724    -0.13000
C192        C  0.64406434  0.41763655  0.80704247     0.00500
C193        C  0.82210800  0.37742302  0.80110911     0.39800
C194        C  0.58303273  0.43062088  0.80829686     0.36400
C195        C  0.71707111  0.43884623  0.94185677     0.36100
C196        C  0.51017336  0.36122239  0.94733612     0.36900
N197        N  0.86937535  0.36517466  0.80073771    -0.43900
N198        N  0.53400919  0.44089726  0.80924635    -0.44400
N199        N  0.47003046  0.34425521  0.94800402    -0.41700
N200        N  0.75943842  0.45439251  0.94114089    -0.43200
H201        H  0.65334841  0.42478131  0.02175696     0.11800
H202        H  0.57306682  0.37570889  0.86818720     0.09500
H203        H  0.75594407  0.38693302  0.88079501     0.10600
H204        H  0.64969591  0.42193787  0.72772234     0.16400
C205        C  0.07286624  0.33964619  0.09242026    -0.01800
C206        C  0.08933088  0.37015095  0.10301111     0.06800
C207        C  0.10951541  0.38872304  0.06433935    -0.07800
C208        C  0.11608328  0.37703691  0.01611090     0.04200
C209        C  0.10362043  0.34580310  0.00613376    -0.15000
C210        C  0.08034491  0.32773973  0.04443949    -0.08300
C211        C  0.09212212  0.38223159  0.15466841     0.05100
C212        C  0.13012487  0.36710889  0.18905808    -0.09500
C213        C  0.14029455  0.37940183  0.23645722     0.00100
C214        C  0.11248591  0.40771687  0.24999884     0.00000
C215        C  0.07291233  0.42230677  0.21606557    -0.13000
C216        C  0.06239787  0.40981957  0.16885486     0.00500
C217        C  0.18226953  0.36326811  0.26893638     0.39800
C218        C  0.02114601  0.42583375  0.13566029     0.36400
C219        C  0.04877319  0.32002376  0.13026306     0.36100
C220        C  0.13754947  0.39754954  0.97844453     0.36900
N221        N  0.21603401  0.35020885  0.29468483    -0.43900
N222        N  0.98807052  0.43881001  0.10924549    -0.44400
N223        N  0.15450571  0.41419232  0.94845372    -0.41700
N224        N  0.02944921  0.30427069  0.16053885    -0.43200
H225        H  0.06933218  0.30394024  0.03731558     0.13000
H226        H  0.12242241  0.41217240  0.07225250     0.09500
H227        H  0.15393664  0.34610531  0.17809659     0.10600
H228        H  0.05074766  0.44388708  0.22613511     0.16400
C229        C  0.24846003  0.38335142  0.69774996    -0.01800
C230        C  0.22069832  0.37254660  0.65363413     0.06800
C231        C  0.18547082  0.34597353  0.65490972    -0.07800
C232        C  0.17558975  0.33080176  0.69950778     0.04200
C233        C  0.20114761  0.34235837  0.74399428    -0.15000
C234        C  0.23770050  0.36847688  0.74264306    -0.08300
C235        C  0.22321491  0.38951842  0.60626484     0.05100
C236        C  0.24682320  0.37460114  0.56405961    -0.09500
C237        C  0.24119040  0.38784715  0.51705829     0.00100
C238        C  0.21191507  0.41676378  0.51194073     0.00000
C239        C  0.19090832  0.43227214  0.55457854    -0.13000
C240        C  0.19533691  0.41871374  0.60133720     0.00500
C241        C  0.26552882  0.37114248  0.47492926     0.39800
C242        C  0.16661045  0.43405886  0.64300268     0.36400
C243        C  0.28840108  0.40939909  0.69783401     0.36100
C244        C  0.13557943  0.30472196  0.69907005     0.36900
N245        N  0.28520302  0.35757453  0.44140804    -0.43900
N246        N  0.14359309  0.44610924  0.67660012    -0.44400
N247        N  0.10335632  0.28391427  0.69891344    -0.41700
N248        N  0.32059488  0.43021283  0.69823013    -0.43200
H249        H  0.25801116  0.37719822  0.77670278     0.13000
H250        H  0.16373888  0.33771371  0.62117072     0.09500
H251        H  0.26795230  0.35206194  0.56771233     0.10600
H252        H  0.16762138  0.45428483  0.55103769     0.16400
C253        C  0.74910180  0.13274736  0.19557715    -0.01800
C254        C  0.72144549  0.12225244  0.15120414     0.06800
C255        C  0.68676299  0.09548216  0.15197120    -0.07800
C256        C  0.67748070  0.07973585  0.19610717     0.04200
C257        C  0.70240982  0.09106329  0.24099181    -0.15000
C258        C  0.73836681  0.11746629  0.24023746    -0.08300
C259        C  0.72508181  0.13906078  0.10360020     0.05100
C260        C  0.74606062  0.12319929  0.06129017    -0.09500
C261        C  0.74012756  0.13600796  0.01402437     0.00100
C262        C  0.71345855  0.16547635  0.00864004     0.00000
C263        C  0.69599244  0.18209555  0.05123249    -0.13000
C264        C  0.70043257  0.16898286  0.09834026     0.00500
C265        C  0.76121661  0.11830467  0.97178034     0.39800
C266        C  0.67438964  0.18566355  0.13984038     0.36400
C267        C  0.78944392  0.15865227  0.19589629     0.36100
C268        C  0.63918460  0.05302939  0.19455892     0.36900
N269        N  0.77810181  0.10414980  0.93788530    -0.43900
N270        N  0.65339702  0.19903233  0.17303627    -0.44400
N271        N  0.60846288  0.03166153  0.19316538    -0.41700
N272        N  0.82181456  0.17939839  0.19594036    -0.43200
H273        H  0.75848975  0.12598687  0.27449924     0.13000
H274        H  0.66540432  0.08728421  0.11801751     0.09500
H275        H  0.76501566  0.10020111  0.06508101     0.10600
H276        H  0.67499278  0.20464748  0.04746616     0.16400
C277        C  0.55401155  0.14840808  0.67164383    -0.01800
C278        C  0.59501817  0.12590329  0.65305336     0.06800
C279        C  0.64540707  0.11689838  0.68218815    -0.07800
C280        C  0.65592647  0.13009707  0.72884041     0.04200
C281        C  0.61624867  0.15346721  0.74673462    -0.15000
C282        C  0.56527439  0.16221177  0.71792352    -0.08300
C283        C  0.58953337  0.11293374  0.60205630     0.05100
C284        C  0.59314371  0.13275291  0.56147552    -0.09500
C285        C  0.59886759  0.12124772  0.51299580     0.00100
C286        C  0.60105441  0.08916257  0.50448696     0.00000
C287        C  0.59344140  0.06945842  0.54499080    -0.13000
C288        C  0.58811663  0.08101964  0.59339675     0.00500
C289        C  0.60449889  0.14302821  0.47328978     0.39800
C290        C  0.58326027  0.05966467  0.63382435     0.36400
C291        C  0.49984078  0.15739597  0.64425039     0.36100
C292        C  0.70964958  0.12031975  0.75616356     0.36900
N293        N  0.60912953  0.16059498  0.44163133    -0.43900
N294        N  0.57983721  0.04267081  0.66640722    -0.44400
N295        N  0.75265817  0.11241739  0.77804128    -0.41700
N296        N  0.45624400  0.16454489  0.62247522    -0.43200
H297        H  0.53417682  0.17992065  0.73158724     0.13000
H298        H  0.67771548  0.09995058  0.66777514     0.09500
H299        H  0.59451401  0.15730691  0.56792913     0.10600
H300        H  0.59434900  0.04482402  0.53926108     0.16400
C301        C  0.13949188  0.16484754  0.30750624    -0.01800
C302        C  0.16636384  0.15311585  0.35130856     0.06800
C303        C  0.22383080  0.13851993  0.34878638    -0.07800
C304        C  0.25438260  0.13525305  0.30357284     0.04200
C305        C  0.22730085  0.14685888  0.25967310    -0.15000
C306        C  0.16996875  0.16156658  0.26222008    -0.08300
C307        C  0.13326786  0.15331928  0.39926147     0.05100
C308        C  0.07714778  0.13831808  0.40174621    -0.09500
C309        C  0.04649911  0.13561802  0.44676646     0.00100
C310        C  0.07246512  0.14784534  0.49067021     0.00000
C311        C  0.12836094  0.16308713  0.48824986    -0.13000
C312        C  0.15862317  0.16612047  0.44294199     0.00500
C313        C  0.99075507  0.11826742  0.44731676     0.39800
C314        C  0.21543520  0.18250816  0.44207424     0.36400
C315        C  0.08060889  0.18020569  0.30805616     0.36100
C316        C  0.31103216  0.11780746  0.30283294     0.36900
N317        N  0.94626281  0.10426642  0.44793826    -0.43900
N318        N  0.26100619  0.19560264  0.44120320    -0.44400
N319        N  0.35610737  0.10359714  0.30225017    -0.41700
N320        N  0.03327009  0.19236711  0.30849678    -0.43200
H321        H  0.14872543  0.17035945  0.22864751     0.13000
H322        H  0.24387554  0.12862683  0.38202830     0.09500
H323        H  0.05815047  0.12778188  0.36856495     0.10600
H324        H  0.14851787  0.17252210  0.52182957     0.16400
C325        C  0.07048674  0.11528058  0.84596219    -0.01800
C326        C  0.13012825  0.10299798  0.85111759     0.06800
C327        C  0.15993971  0.09076463  0.80925066    -0.07800
C328        C  0.13242927  0.09200783  0.76223840     0.04200
C329        C  0.07368887  0.10541156  0.75684637    -0.15000
C330        C  0.04270210  0.11612343  0.79917698    -0.08300
C331        C  0.16311894  0.10413032  0.89933997     0.05100
C332        C  0.13872913  0.08924198  0.94059174    -0.09500
C333        C  0.16669465  0.09154966  0.98734055     0.00100
C334        C  0.22073340  0.10845727  0.99289325     0.00000
C335        C  0.24613666  0.12250176  0.95136367    -0.13000
C336        C  0.21749641  0.12083796  0.90497284     0.00500
C337        C  0.14010965  0.07574817  0.02859990     0.39800
C338        C  0.24305570  0.13778296  0.86441501     0.36400
C339        C  0.03818755  0.12882864  0.88747251     0.36100
C340        C  0.16508489  0.07901031  0.72049684     0.36900
N341        N  0.11887614  0.06297708  0.06161335    -0.43900
N342        N  0.26345424  0.15145245  0.83200429    -0.44400
N343        N  0.19126948  0.06843341  0.68716758    -0.41700
N344        N  0.01216585  0.13973770  0.92061036    -0.43200
H345        H  0.99764822  0.12659536  0.79542887     0.13000
H346        H  0.20533047  0.08076586  0.81324398     0.09500
H347        H  0.09726758  0.07606749  0.93629151     0.10600
H348        H  0.28740745  0.13585833  0.95559299     0.16400
In349      In  0.30725092  0.62722355  0.12508215     1.36900
C350        C  0.35474035  0.57492749  0.15880427     0.77800
O351        O  0.38525712  0.65209061  0.08965034    -0.60700
O352        O  0.30556696  0.67771591  0.10922319    -0.51600
C353        C  0.25081162  0.61313782  0.04131740     0.70400
O354        O  0.30818086  0.61301416  0.04570759    -0.46400
C355        C  0.25585015  0.64201639  0.21067130     0.75100
O356        O  0.30243155  0.57674560  0.13926818    -0.58300
O357        O  0.31298453  0.64146991  0.20471988    -0.48400
O358        O  0.38514429  0.59930840  0.15738637    -0.54700
C359        C  0.35659070  0.67741694  0.08783344     0.85300
O360        O  0.22179981  0.61910067  0.08072680    -0.56600
O361        O  0.22487248  0.63708048  0.17174988    -0.59900
In362      In  0.66041100  0.70172550  0.87411854     1.36900
C363        C  0.62926659  0.67028679  0.79341692     0.77800
O364        O  0.56241361  0.69617602  0.89614370    -0.60700
O365        O  0.60129645  0.74030308  0.90482418    -0.51600
C366        C  0.69779605  0.67838777  0.95957544     0.70400
O367        O  0.68561011  0.66189026  0.92213983    -0.46400
C368        C  0.75895728  0.72807430  0.83585648     0.75100
O369        O  0.65648236  0.65816021  0.82989942    -0.58300
O370        O  0.70746676  0.74156842  0.83690480    -0.48400
O371        O  0.61565288  0.69831094  0.79924081    -0.54700
C372        C  0.55554099  0.72342949  0.91128708     0.85300
O373        O  0.69239126  0.70687920  0.95259004    -0.56600
O374        O  0.76030135  0.70235029  0.85654027    -0.59900
In375      In  0.15421905  0.80243234  0.87545663     1.36900
C376        C  0.11875354  0.83067454  0.95812115     0.77800
O377        O  0.05536265  0.80690711  0.85345940    -0.60700
O378        O  0.09943954  0.76373283  0.84187484    -0.51600
C379        C  0.18788723  0.82821938  0.79204703     0.70400
O380        O  0.17635856  0.84383519  0.83065869    -0.46400
C381        C  0.25654088  0.77681917  0.91221730     0.75100
O382        O  0.13804613  0.84491030  0.92090320    -0.58300
O383        O  0.20713919  0.76228965  0.90871910    -0.48400
O384        O  0.11566828  0.80199554  0.95194547    -0.54700
C385        C  0.05165778  0.78002931  0.83630998     0.85300
O386        O  0.18509222  0.79955737  0.79715757    -0.56600
O387        O  0.25409576  0.80349213  0.89479634    -0.59900
In388      In  0.40597003  0.74893265  0.99678984     1.36900
C389        C  0.50024539  0.73375717  0.93784035     0.77800
O390        O  0.38698869  0.79503453  0.03273159    -0.60700
O391        O  0.46894274  0.77149149  0.05208442    -0.51600
C392        C  0.31149403  0.76500548  0.93795640     0.70400
O393        O  0.36030161  0.77986610  0.94044520    -0.46400
C394        C  0.37764938  0.70362792  0.05893088     0.75100
O395        O  0.49763347  0.75849335  0.96218289    -0.58300
O396        O  0.34990160  0.72912185  0.05860740    -0.48400
O397        O  0.45313812  0.71761063  0.94105836    -0.54700
C398        C  0.43658498  0.79549029  0.05654231     0.85300
O399        O  0.31248511  0.74055517  0.96243768    -0.56600
O400        O  0.42174810  0.70171403  0.02930430    -0.59900
In401      In  0.65437497  0.54952791  0.37133871     1.36900
C402        C  0.68893837  0.57635055  0.28871812     0.77800
O403        O  0.75312797  0.55240975  0.39174881    -0.60700
O404        O  0.70907412  0.51011451  0.40440785    -0.51600
C405        C  0.61656673  0.57536133  0.45546692     0.70400
O406        O  0.63417659  0.59077500  0.41888455    -0.46400
C407        C  0.55317411  0.52658853  0.33152764     0.75100
O408        O  0.67613754  0.59151413  0.32756257    -0.58300
O409        O  0.60121445  0.51044547  0.33705211    -0.48400
O410        O  0.68686070  0.54759966  0.29319873    -0.54700
C411        C  0.75696194  0.52576775  0.40911087     0.85300
O412        O  0.61615026  0.54676048  0.44782552    -0.56600
O413        O  0.55629652  0.55348831  0.34866855    -0.59900
In414      In  0.50254853  0.87381867  0.12255806     1.36900
C415        C  0.45747036  0.82264751  0.08392418     0.77800
O416        O  0.42353141  0.90226522  0.15287144    -0.60700
O417        O  0.50943586  0.92349213  0.14355824    -0.51600
C418        C  0.54866573  0.85539470  0.20838254     0.70400
O419        O  0.49209821  0.85796945  0.20007348    -0.46400
C420        C  0.55508470  0.89008412  0.03901009     0.75100
O421        O  0.51123345  0.82440386  0.10055063    -0.58300
O422        O  0.49796042  0.88826330  0.04374830    -0.48400
O423        O  0.42498895  0.84664659  0.08971317    -0.54700
C424        C  0.45541978  0.92596081  0.15913015     0.85300
O425        O  0.58223022  0.86061293  0.17143824    -0.56600
O426        O  0.58572643  0.88542392  0.07828107    -0.59900
In427      In  0.80666847  0.87823776  0.62259713     1.36900
C428        C  0.85348433  0.92884760  0.58493418     0.77800
O429        O  0.88544580  0.85084892  0.65494893    -0.60700
O430        O  0.80095438  0.82863188  0.64165551    -0.51600
C431        C  0.75869809  0.89561065  0.70829474     0.70400
O432        O  0.81548358  0.89369954  0.70115215    -0.46400
C433        C  0.75210541  0.86052737  0.53962126     0.75100
O434        O  0.80038287  0.92787736  0.60253841    -0.58300
O435        O  0.80937624  0.86183738  0.54442065    -0.48400
O436        O  0.88453997  0.90432627  0.58920282    -0.54700
C437        C  0.85411354  0.82693404  0.65962572     0.85300
O438        O  0.72612803  0.89057356  0.67022218    -0.56600
O439        O  0.72223209  0.86681787  0.57850399    -0.59900
In440      In  0.90398955  0.50159076  0.49775937     1.36900
C441        C  0.81147963  0.51531535  0.43639191     0.77800
O442        O  0.92348711  0.95561486  0.53335033    -0.60700
O443        O  0.84333406  0.97998593  0.55442906    -0.51600
C444        C  0.99957318  0.98696054  0.43976779     0.70400
O445        O  0.95340980  0.97022331  0.44367180    -0.46400
C446        C  0.92937092  0.54846135  0.55868028     0.75100
O447        O  0.81320121  0.49105374  0.46127861    -0.58300
O448        O  0.96392899  0.52530897  0.55364151    -0.48400
O449        O  0.85873704  0.53132608  0.44004165    -0.54700
C450        C  0.87482949  0.95571116  0.55795812     0.85300
O451        O  0.99535688  0.01211534  0.46286895    -0.56600
O452        O  0.87992905  0.54704487  0.53477784    -0.59900
In453      In  0.16073073  0.95434136  0.37781214     1.36900
C454        C  0.19735989  0.93020214  0.46299764     0.77800
O455        O  0.26031923  0.95312643  0.35875950    -0.60700
O456        O  0.20995578  0.49319645  0.33948266    -0.51600
C457        C  0.12721108  0.92384893  0.29703488     0.70400
O458        O  0.15018882  0.91067902  0.33446086    -0.46400
C459        C  0.05551246  0.97668541  0.41391039     0.75100
O460        O  0.18689754  0.91408802  0.42478245    -0.58300
O461        O  0.10202815  0.49326553  0.40882210    -0.48400
O462        O  0.19105749  0.95876006  0.45689076    -0.54700
C463        C  0.26015577  0.97854434  0.33711463     0.85300
O464        O  0.11916437  0.95241934  0.30218283    -0.56600
O465        O  0.06203525  0.94957198  0.39805551    -0.59900
In466      In  0.40461775  0.50106278  0.24572548     1.36900
C467        C  0.31303055  0.98844442  0.30801576     0.77800
O468        O  0.42348520  0.54700854  0.21157312    -0.60700
O469        O  0.34448973  0.52346639  0.18767059    -0.51600
C470        C  0.49887354  0.51610640  0.30432269     0.70400
O471        O  0.45129227  0.53251109  0.30019310    -0.46400
C472        C  0.43391959  0.95353020  0.18609870     0.75100
O473        O  0.36227400  0.97315612  0.30636228    -0.58300
O474        O  0.46492261  0.97757812  0.18894319    -0.48400
O475        O  0.31153767  0.01127448  0.27976990    -0.54700
C476        C  0.37564231  0.54749047  0.18548623     0.85300
O477        O  0.49719265  0.49109856  0.28069219    -0.56600
O478        O  0.38574790  0.95436306  0.21137030    -0.59900
In479      In  0.99305761  0.62744793  0.62350202     1.36900
C480        C  0.94835909  0.57581071  0.58647919     0.77800
O481        O  0.91637810  0.65598981  0.65639910    -0.60700
O482        O  0.00113971  0.67727711  0.64130738    -0.51600
C483        C  0.04513396  0.61100739  0.70793022     0.70400
O484        O  0.98796172  0.61342137  0.70253728    -0.46400
C485        C  0.04416489  0.64290472  0.53939032     0.75100
O486        O  0.00170950  0.57791430  0.60372161    -0.58300
O487        O  0.98698533  0.64224439  0.54496656    -0.48400
O488        O  0.91525743  0.59966314  0.59164834    -0.54700
C489        C  0.94879051  0.67970721  0.66014732     0.85300
O490        O  0.07564263  0.61560891  0.66910914    -0.56600
O491        O  0.07533387  0.63763403  0.57813694    -0.59900
In492      In  0.90411277  0.75428861  0.74911257     1.36900
C493        C  0.81230456  0.73962654  0.80923314     0.77800
O494        O  0.92413282  0.79943509  0.71220266    -0.60700
O495        O  0.84227595  0.77685062  0.69293439    -0.51600
C496        C  0.99738879  0.76961112  0.80877246     0.70400
O497        O  0.94953539  0.78586274  0.80454800    -0.46400
C498        C  0.93011056  0.70713518  0.68832827     0.75100
O499        O  0.86260291  0.72520379  0.80833480    -0.58300
O500        O  0.96271722  0.73063065  0.69142608    -0.48400
O501        O  0.81038130  0.76310094  0.78234000    -0.54700
C502        C  0.87490848  0.80012599  0.68785989     0.85300
O503        O  0.99629316  0.74471193  0.78475726    -0.56600
O504        O  0.88287859  0.70821965  0.71455473    -0.59900
C505        C  0.65662256  0.82787193  0.30922360    -0.01800
C506        C  0.62935434  0.84073569  0.35208215     0.06800
C507        C  0.57283358  0.85602724  0.34784770    -0.07800
C508        C  0.54460323  0.85985199  0.30159014     0.04200
C509        C  0.57348448  0.84844961  0.25823887    -0.15000
C510        C  0.62888429  0.83204722  0.26268511    -0.08300
C511        C  0.66266264  0.84251306  0.40015965     0.05100
C512        C  0.71714763  0.85898949  0.40181060    -0.09500
C513        C  0.74709651  0.86466488  0.44678522     0.00100
C514        C  0.72270620  0.85353969  0.49144767     0.00000
C515        C  0.66838699  0.83680304  0.48992481    -0.13000
C516        C  0.63829003  0.83119466  0.44467094     0.00500
C517        C  0.80005184  0.88406982  0.44642150     0.39800
C518        C  0.58245568  0.81397920  0.44470340     0.36400
C519        C  0.71332447  0.81062618  0.31226356     0.36100
C520        C  0.48851343  0.87771160  0.29946573     0.36900
N521        N  0.84214062  0.89982310  0.44644660    -0.43900
N522        N  0.53759027  0.80026938  0.44458662    -0.44400
N523        N  0.44369286  0.89208669  0.29767361    -0.41700
N524        N  0.75868168  0.79675510  0.31500297    -0.43200
H525        H  0.65094922  0.82287566  0.22970476     0.13000
H526        H  0.55217882  0.86640168  0.38054673     0.09500
H527        H  0.73502644  0.86856920  0.36793539     0.10600
H528        H  0.64932930  0.82826375  0.52408864     0.16400
C529        C  0.66431444  0.91938190  0.94268193    -0.01800
C530        C  0.64145553  0.90561874  0.89883274     0.06800
C531        C  0.58968120  0.88715691  0.90143444    -0.07800
C532        C  0.56066912  0.88220170  0.94662601     0.04200
C533        C  0.58357069  0.89587299  0.99055353    -0.15000
C534        C  0.63545931  0.91429636  0.98813308    -0.08300
C535        C  0.67380332  0.90745967  0.85067664     0.05100
C536        C  0.73341567  0.89544675  0.84757973    -0.09500
C537        C  0.76283023  0.89245062  0.80185811     0.00100
C538        C  0.73232787  0.90171013  0.75786580     0.00000
C539        C  0.67341255  0.91468339  0.76117717    -0.13000
C540        C  0.64406427  0.91763642  0.80704260     0.00500
C541        C  0.82210823  0.87742309  0.80110907     0.39800
C542        C  0.58303290  0.93062087  0.80829690     0.36400
C543        C  0.71707099  0.93884622  0.94185678     0.36100
C544        C  0.51017316  0.86122226  0.94733603     0.36900
N545        N  0.86937544  0.86517467  0.80073769    -0.43900
N546        N  0.53400934  0.94089728  0.80924635    -0.44400
N547        N  0.47003025  0.84425520  0.94800401    -0.41700
N548        N  0.75943824  0.95439257  0.94114089    -0.43200
H549        H  0.65334815  0.92478120  0.02175698     0.11800
H550        H  0.57306796  0.87570898  0.86818809     0.09500
H551        H  0.75594402  0.88693303  0.88079503     0.10600
H552        H  0.64969647  0.92193729  0.72772365     0.16400
C553        C  0.07286632  0.83964638  0.09242028    -0.01800
C554        C  0.08933099  0.87015115  0.10301098     0.06800
C555        C  0.10951538  0.88872303  0.06433917    -0.07800
C556        C  0.11608314  0.87703712  0.01611083     0.04200
C557        C  0.10362043  0.84580323  0.00613376    -0.15000
C558        C  0.08034487  0.82773971  0.04443947    -0.08300
C559        C  0.09212216  0.88223165  0.15466827     0.05100
C560        C  0.13012514  0.86710880  0.18905795    -0.09500
C561        C  0.14029450  0.87940189  0.23645730     0.00100
C562        C  0.11248605  0.90771674  0.24999886     0.00000
C563        C  0.07291201  0.92230689  0.21606577    -0.13000
C564        C  0.06239782  0.90981939  0.16885481     0.00500
C565        C  0.18226980  0.86326822  0.26893649     0.39800
C566        C  0.02114588  0.92583377  0.13566036     0.36400
C567        C  0.04877332  0.82002395  0.13026309     0.36100
C568        C  0.13754933  0.89754958  0.97844456     0.36900
N569        N  0.21603440  0.85020895  0.29468464    -0.43900
N570        N  0.98807016  0.93880988  0.10924554    -0.44400
N571        N  0.15450528  0.91419243  0.94845361    -0.41700
N572        N  0.02944937  0.80427075  0.16053884    -0.43200
H573        H  0.06933176  0.80394182  0.03731587     0.13000
H574        H  0.12242221  0.91217431  0.07225265     0.09500
H575        H  0.15393608  0.84610614  0.17809694     0.10600
H576        H  0.05074905  0.94388476  0.22613457     0.16400
C577        C  0.24846024  0.88335143  0.69775006    -0.01800
C578        C  0.22069868  0.87254664  0.65363435     0.06800
C579        C  0.18547087  0.84597352  0.65490953    -0.07800
C580        C  0.17558973  0.83080189  0.69950802     0.04200
C581        C  0.20114775  0.84235834  0.74399444    -0.15000
C582        C  0.23770054  0.86847684  0.74264303    -0.08300
C583        C  0.22321527  0.88951820  0.60626490     0.05100
C584        C  0.24682321  0.87460115  0.56405955    -0.09500
C585        C  0.24119042  0.88784690  0.51705827     0.00100
C586        C  0.21191530  0.91676350  0.51194074     0.00000
C587        C  0.19090820  0.93227224  0.55457858    -0.13000
C588        C  0.19533721  0.91871344  0.60133729     0.00500
C589        C  0.26552892  0.87114238  0.47492917     0.39800
C590        C  0.16661059  0.93405885  0.64300266     0.36400
C591        C  0.28840130  0.90939907  0.69783394     0.36100
C592        C  0.13557956  0.80472202  0.69907003     0.36900
N593        N  0.28520298  0.85757441  0.44140800    -0.43900
N594        N  0.14359327  0.94610927  0.67660002    -0.44400
N595        N  0.10335622  0.78391440  0.69891344    -0.41700
N596        N  0.32059511  0.93021279  0.69823011    -0.43200
H597        H  0.25801153  0.87719870  0.77670396     0.13000
H598        H  0.16374069  0.83771451  0.62117330     0.09500
H599        H  0.26795390  0.85205998  0.56771252     0.10600
H600        H  0.16762458  0.95428205  0.55103828     0.16400
C601        C  0.74910174  0.63274739  0.19557722    -0.01800
C602        C  0.72144550  0.62225243  0.15120410     0.06800
C603        C  0.68676290  0.59548224  0.15197136    -0.07800
C604        C  0.67748077  0.57973587  0.19610726     0.04200
C605        C  0.70240990  0.59106334  0.24099198    -0.15000
C606        C  0.73836680  0.61746626  0.24023739    -0.08300
C607        C  0.72508196  0.63906060  0.10360018     0.05100
C608        C  0.74606058  0.62319940  0.06129016    -0.09500
C609        C  0.74012781  0.63600770  0.01402442     0.00100
C610        C  0.71345881  0.66547615  0.00864013     0.00000
C611        C  0.69599248  0.68209559  0.05123254    -0.13000
C612        C  0.70043272  0.66898270  0.09834030     0.00500
C613        C  0.76121673  0.61830465  0.97178031     0.39800
C614        C  0.67438972  0.68566348  0.13984048     0.36400
C615        C  0.78944409  0.65865230  0.19589629     0.36100
C616        C  0.63918468  0.55302948  0.19455899     0.36900
N617        N  0.77810189  0.60414971  0.93788531    -0.43900
N618        N  0.65339721  0.69903218  0.17303642    -0.44400
N619        N  0.60846296  0.53166154  0.19316537    -0.41700
N620        N  0.82181468  0.67939837  0.19594034    -0.43200
H621        H  0.75849024  0.62598728  0.27450043     0.13000
H622        H  0.66540357  0.58728423  0.11801732     0.09500
H623        H  0.76501727  0.60019871  0.06508148     0.10600
H624        H  0.67499422  0.70464573  0.04746651     0.16400
C625        C  0.55401184  0.64840794  0.67164362    -0.01800
C626        C  0.59501800  0.62590329  0.65305338     0.06800
C627        C  0.64540743  0.61689826  0.68218810    -0.07800
C628        C  0.65592661  0.63009723  0.72884051     0.04200
C629        C  0.61624890  0.65346696  0.74673477    -0.15000
C630        C  0.56527401  0.66221196  0.71792377    -0.08300
C631        C  0.58953348  0.61293354  0.60205629     0.05100
C632        C  0.59314381  0.63275313  0.56147560    -0.09500
C633        C  0.59886772  0.62124753  0.51299572     0.00100
C634        C  0.60105435  0.58916251  0.50448697     0.00000
C635        C  0.59344139  0.56945825  0.54499082    -0.13000
C636        C  0.58811662  0.58101960  0.59339678     0.00500
C637        C  0.60449904  0.64302812  0.47328979     0.39800
C638        C  0.58326037  0.55966469  0.63382440     0.36400
C639        C  0.49984049  0.65739589  0.64425044     0.36100
C640        C  0.70964956  0.62031968  0.75616361     0.36900
N641        N  0.60912965  0.66059495  0.44163131    -0.43900
N642        N  0.57983737  0.54267075  0.66640712    -0.44400
N643        N  0.75265823  0.61241738  0.77804122    -0.41700
N644        N  0.45624387  0.66454478  0.62247526    -0.43200
H645        H  0.53418096  0.67991818  0.73158557     0.13000
H646        H  0.67771378  0.59995205  0.66777598     0.09500
H647        H  0.59451398  0.65730446  0.56792851     0.10600
H648        H  0.59434789  0.54482417  0.53926112     0.16400
C649        C  0.13949195  0.66484756  0.30750633    -0.01800
C650        C  0.16636361  0.65311578  0.35130839     0.06800
C651        C  0.22383100  0.63851986  0.34878667    -0.07800
C652        C  0.25438252  0.63525307  0.30357265     0.04200
C653        C  0.22730095  0.64685886  0.25967311    -0.15000
C654        C  0.16996877  0.66156660  0.26221991    -0.08300
C655        C  0.13326806  0.65331937  0.39926166     0.05100
C656        C  0.07714773  0.63831799  0.40174593    -0.09500
C657        C  0.04649921  0.63561811  0.44676673     0.00100
C658        C  0.07246503  0.64784538  0.49067029     0.00000
C659        C  0.12836097  0.66308722  0.48825003    -0.13000
C660        C  0.15862310  0.66612055  0.44294198     0.00500
C661        C  0.99075476  0.61826745  0.44731688     0.39800
C662        C  0.21543519  0.68250805  0.44207425     0.36400
C663        C  0.08060886  0.68020565  0.30805609     0.36100
C664        C  0.31103194  0.61780736  0.30283313     0.36900
N665        N  0.94626253  0.60426655  0.44793826    -0.43900
N666        N  0.26100617  0.69560257  0.44120319    -0.44400
N667        N  0.35610718  0.60359701  0.30225007    -0.41700
N668        N  0.03327003  0.69236704  0.30849678    -0.43200
H669        H  0.14872672  0.67035932  0.22864856     0.13000
H670        H  0.24387400  0.62862779  0.38202544     0.09500
H671        H  0.05815253  0.62778286  0.36856808     0.10600
H672        H  0.14851703  0.67252256  0.52182907     0.16400
C673        C  0.07048727  0.61528046  0.84596227    -0.01800
C674        C  0.13012865  0.60299793  0.85111764     0.06800
C675        C  0.15993955  0.59076465  0.80925062    -0.07800
C676        C  0.13242956  0.59200773  0.76223843     0.04200
C677        C  0.07368931  0.60541141  0.75684638    -0.15000
C678        C  0.04270176  0.61612357  0.79917697    -0.08300
C679        C  0.16311917  0.60413047  0.89934000     0.05100
C680        C  0.13872881  0.58924191  0.94059165    -0.09500
C681        C  0.16669469  0.59154978  0.98734065     0.00100
C682        C  0.22073344  0.60845709  0.99289332     0.00000
C683        C  0.24613678  0.62250187  0.95136385    -0.13000
C684        C  0.21749642  0.62083800  0.90497287     0.00500
C685        C  0.14010963  0.57574814  0.02859984     0.39800
C686        C  0.24305575  0.63778298  0.86441508     0.36400
C687        C  0.03818763  0.62882876  0.88747247     0.36100
C688        C  0.16508501  0.57901020  0.72049681     0.36900
N689        N  0.11887589  0.56297704  0.06161317    -0.43900
N690        N  0.26345439  0.65145241  0.83200426    -0.44400
N691        N  0.19126944  0.56843329  0.68716758    -0.41700
N692        N  0.01216595  0.63973774  0.92061033    -0.43200
H693        H  0.99765407  0.62659375  0.79542953     0.13000
H694        H  0.20533413  0.58076498  0.81324432     0.09500
H695        H  0.09727092  0.57606837  0.93629161     0.10600
H696        H  0.28740642  0.63585752  0.95559291     0.16400
loop_ 
_geom_bond_atom_site_label_1 
_geom_bond_atom_site_label_2 
_geom_bond_distance 
_geom_bond_site_symmetry_2 
_ccdc_geom_bond_type 
In1           O3   2.258       .  S
In1           O4   2.246       .  S
In1          O12   2.244       .  S
In1           O6   2.222       .  S
In1           O8   2.241       .  S
In1           O9   2.232       .  S
In1          O10   2.255       .  S
In1          O13   2.240       .  S
C2            O8   1.259       .  A
C2           O10   1.264       .  A
C2          C128   1.467       .  S
O3           C11   1.263       .  A
O4           C11   1.260       .  A
C5           O12   1.264       .  A
C5            O6   1.261       .  A
C5          C334   1.472   1_554  S
C7            O9   1.262       .  A
C7           O13   1.264       .  A
C7          C305   1.477       .  S
C11          C46   1.470       .  S
In14         O16   2.247       .  S
In14         O17   2.261       .  S
In14         O25   2.233       .  S
In14         O19   2.235       .  S
In14         O21   2.236       .  S
In14         O22   2.276       .  S
In14         O23   2.242       .  S
In14         O26   2.241       .  S
C15          O21   1.262       .  A
C15          O23   1.262       .  A
C15         C281   1.479       .  S
O16          C24   1.260       .  A
O17          C24   1.265       .  A
C18          O25   1.262       .  A
C18          O19   1.263       .  A
C18         C262   1.478   1_556  S
C20          O22   1.264       .  A
C20          O26   1.257       .  A
C20         C145   1.472       .  S
C24          C41   1.473       .  S
In27         O29   2.246       .  S
In27         O30   2.264       .  S
In27         O38   2.221       .  S
In27         O32   2.241       .  S
In27         O34   2.237       .  S
In27         O35   2.272       .  S
In27         O36   2.232       .  S
In27         O39   2.245       .  S
C28          O34   1.262       .  A
C28          O36   1.263       .  A
C28         C209   1.484   1_556  S
O29          C37   1.260       .  A
O30          C37   1.265       .  A
C31          O38   1.261       .  A
C31          O32   1.263       .  A
C31         C233   1.471       .  S
C33          O35   1.264       .  A
C33          O39   1.258       .  A
C33          C44   1.473       .  S
C37         C148   1.472   1_455  S
In40         O42   2.258   1_556  S
In40         O43   2.253   1_556  S
In40         O51   2.274       .  S
In40         O45   2.258       .  S
In40         O47   2.264       .  S
In40         O48   2.261   1_556  S
In40         O49   2.265       .  S
In40         O52   2.266   1_556  S
C41          O47   1.258       .  A
C41          O49   1.261       .  A
O42          C50   1.258       .  A
O43          C50   1.260       .  A
C44          O51   1.258       .  A
C44          O45   1.259       .  A
C46          O48   1.259       .  A
C46          O52   1.258       .  A
C50          C67   1.467       .  S
In53         O55   2.232       .  S
In53         O56   2.266       .  S
In53         O64   2.234       .  S
In53         O58   2.239       .  S
In53         O60   2.245       .  S
In53         O61   2.265       .  S
In53         O62   2.227       .  S
In53         O65   2.233       .  S
C54          O60   1.264       .  A
C54          O62   1.262       .  A
C54         C257   1.476       .  S
O55          C63   1.258       .  A
O56          C63   1.265       .  A
C57          O64   1.262       .  A
C57          O58   1.263       .  A
C57         C286   1.486       .  S
C59          O61   1.266       .  A
C59          O65   1.259       .  A
C59         C122   1.469       .  S
C63          C93   1.467       .  S
In66         O68   2.266       .  S
In66         O69   2.241       .  S
In66         O77   2.250       .  S
In66         O71   2.220       .  S
In66         O73   2.236       .  S
In66         O74   2.221       .  S
In66         O75   2.256       .  S
In66         O78   2.250       .  S
C67          O73   1.260       .  A
C67          O75   1.266       .  A
O68          C76   1.265       .  A
O69          C76   1.260       .  A
C70          O77   1.265       .  A
C70          O71   1.261       .  A
C70         C161   1.478       .  S
C72          O74   1.262       .  A
C72          O78   1.265       .  A
C72         C185   1.476   1_554  S
C76         C124   1.472       .  S
In79         O81   2.258       .  S
In79         O82   2.233       .  S
In79         O90   2.244       .  S
In79         O84   2.224       .  S
In79         O86   2.238       .  S
In79         O87   2.219       .  S
In79         O88   2.260       .  S
In79         O91   2.250       .  S
C80          O86   1.260       .  A
C80          O88   1.264       .  A
C80         C102   1.468       .  S
O81          C89   1.264       .  A
O82          C89   1.259       .  A
C83          O90   1.265       .  A
C83          O84   1.261       .  A
C83         C190   1.479       .  S
C85          O87   1.262       .  A
C85          O91   1.265       .  A
C85         C166   1.476       .  S
C89         C154   1.466       .  S
In92         O99   2.263   1_545  S
In92        O100   2.246       .  S
In92        O101   2.249       .  S
In92        O104   2.268       .  S
In92        O442   2.264   1_545  S
In92        O443   2.252   1_545  S
In92        O451   2.270       .  S
In92        O445   2.260   1_545  S
C93          O99   1.257   1_545  A
C93         O101   1.259       .  A
O94        In440   2.264       .  S
O94         C102   1.258       .  A
O95        In440   2.252       .  S
O95         C102   1.259       .  A
C96         O103   1.259       .  A
C96          O97   1.261       .  A
C96         C111   1.475   1_655  S
O97        In440   2.260       .  S
C98         O100   1.260       .  A
C98         O104   1.258       .  A
C98         C132   1.467       .  S
O103       In440   2.270       .  S
In105       O107   2.243       .  S
In105       O116   2.228       .  S
In105       O110   2.239       .  S
In105       O112   2.238       .  S
In105       O114   2.235       .  S
In105       O117   2.245       .  S
In105       O456   2.280       .  S
In105       O461   2.270       .  S
C106        O112   1.263       .  A
C106        O114   1.263       .  A
C106        C238   1.479       .  S
O107        C115   1.257       .  A
O108       In453   2.280       .  S
O108        C463   1.265       .  A
C109        O116   1.262       .  A
C109        O110   1.263       .  A
C109        C214   1.480       .  S
C111        O117   1.260       .  A
C111        O461   1.266       .  A
O113       In453   2.270       .  S
O113        C459   1.266       .  A
C115        O456   1.265       .  A
C115        C119   1.474       .  S
In118       O120   2.257       .  S
In118       O121   2.257       .  S
In118       O129   2.267   1_545  S
In118       O123   2.251       .  S
In118       O473   2.258   1_545  S
In118       O474   2.256   1_545  S
In118       O475   2.277       .  S
In118       O478   2.272   1_545  S
C119        O125   1.260       .  A
C119        O127   1.258       .  A
O120        C128   1.258       .  A
O121        C128   1.260       .  A
C122        O129   1.259   1_545  A
C122        O123   1.260       .  A
C124        O126   1.259       .  A
C124        O130   1.259       .  A
O125       In466   2.258       .  S
O126       In466   2.256       .  S
O127       In466   2.277       .  S
O130       In466   2.272       .  S
In131       O133   2.256       .  S
In131       O134   2.230   1_655  S
In131       O142   2.236   1_655  S
In131       O136   2.225       .  S
In131       O138   2.226   1_655  S
In131       O139   2.220       .  S
In131       O140   2.265       .  S
In131       O143   2.236   1_655  S
C132        O138   1.258   1_655  A
C132        O140   1.266       .  A
O133        C141   1.266       .  A
O134        C141   1.259   1_455  A
C135        O142   1.264       .  A
C135        O136   1.262   1_455  A
C135        C329   1.476       .  S
C137        O139   1.263   1_455  A
C137        O143   1.264       .  A
C137        C310   1.474       .  S
C141        C150   1.466       .  S
In144       O146   2.263       .  S
In144       O147   2.248       .  S
In144       O155   2.264       .  S
In144       O149   2.258       .  S
In144       O151   2.251       .  S
In144       O152   2.255       .  S
In144       O153   2.270       .  S
In144       O156   2.260       .  S
C145        O151   1.260       .  A
C145        O153   1.259       .  A
O146        C154   1.258       .  A
O147        C154   1.259       .  A
C148        O155   1.260       .  A
C148        O149   1.261       .  A
C150        O152   1.259       .  A
C150        O156   1.256       .  A
C157        C158   1.411       .  A
C157        C162   1.402       .  A
C157        C171   1.444       .  S
C158        C163   1.484       .  S
C158        C159   1.401       .  A
C159        C160   1.398       .  A
C159        H178   1.085       .  S
C160        C161   1.415       .  A
C160        C172   1.445       .  S
C161        C162   1.404       .  A
C162        H177   1.085       .  S
C163        C164   1.402       .  A
C163        C168   1.412       .  A
C164        C165   1.396       .  A
C164        H179   1.085       .  S
C165        C166   1.412       .  A
C165        C169   1.445       .  S
C166        C167   1.405       .  A
C167        C168   1.403       .  A
C167        H180   1.084       .  S
C168        C170   1.444       .  S
C169        N173   1.157       .  T
C170        N174   1.157       .  T
C171        N176   1.157       .  T
C172        N175   1.157       .  T
C181        C182   1.413       .  A
C181        C186   1.403       .  A
C181        C195   1.444       .  S
C182        C187   1.486       .  S
C182        C183   1.402       .  A
C183        C184   1.397       .  A
C183        H202   1.085       .  S
C184        C185   1.413       .  A
C184        C196   1.446       .  S
C185        C186   1.403       .  A
C186        H201   1.085   1_556  S
C187        C188   1.402       .  A
C187        C192   1.412       .  A
C188        C189   1.398       .  A
C188        H203   1.085       .  S
C189        C190   1.416       .  A
C189        C193   1.445       .  S
C190        C191   1.404       .  A
C191        C192   1.401       .  A
C191        H204   1.085       .  S
C192        C194   1.444       .  S
C193        N197   1.158       .  T
C194        N198   1.157       .  T
C195        N200   1.157       .  T
C196        N199   1.157       .  T
C205        C206   1.410       .  A
C205        C210   1.399       .  A
C205        C219   1.444       .  S
C206        C211   1.485       .  S
C206        C207   1.403       .  A
C207        C208   1.399       .  A
C207        H226   1.084       .  S
C208        C209   1.416       .  A
C208        C220   1.444   1_554  S
C209        C210   1.407       .  A
C210        H225   1.084       .  S
C211        C212   1.404       .  A
C211        C216   1.410       .  A
C212        C213   1.398       .  A
C212        H227   1.087       .  S
C213        C214   1.415       .  A
C213        C217   1.444       .  S
C214        C215   1.405       .  A
C215        C216   1.398       .  A
C215        H228   1.085       .  S
C216        C218   1.444       .  S
C217        N221   1.157       .  T
C218        N222   1.157   1_455  T
C219        N224   1.157       .  T
C220        N223   1.157       .  T
C229        C230   1.412       .  A
C229        C234   1.400       .  A
C229        C243   1.444       .  S
C230        C235   1.483       .  S
C230        C231   1.402       .  A
C231        C232   1.396       .  A
C231        H250   1.084       .  S
C232        C233   1.412       .  A
C232        C244   1.446       .  S
C233        C234   1.402       .  A
C234        H249   1.085       .  S
C235        C236   1.403       .  A
C235        C240   1.411       .  A
C236        C237   1.400       .  A
C236        H251   1.085       .  S
C237        C238   1.413       .  A
C237        C241   1.444       .  S
C238        C239   1.405       .  A
C239        C240   1.399       .  A
C239        H252   1.085       .  S
C240        C242   1.445       .  S
C241        N245   1.157       .  T
C242        N246   1.157       .  T
C243        N248   1.157       .  T
C244        N247   1.157       .  T
C253        C254   1.412       .  A
C253        C258   1.403       .  A
C253        C267   1.444       .  S
C254        C259   1.486       .  S
C254        C255   1.402       .  A
C255        C256   1.396       .  A
C255        H274   1.085       .  S
C256        C257   1.412       .  A
C256        C268   1.445       .  S
C257        C258   1.405       .  A
C258        H273   1.085       .  S
C259        C260   1.404       .  A
C259        C264   1.412       .  A
C260        C261   1.400       .  A
C260        H275   1.085       .  S
C261        C262   1.412       .  A
C261        C265   1.444   1_554  S
C262        C263   1.404       .  A
C263        C264   1.399       .  A
C263        H276   1.085       .  S
C264        C266   1.444       .  S
C265        N269   1.157       .  T
C266        N270   1.157       .  T
C267        N272   1.157       .  T
C268        N271   1.157       .  T
C277        C278   1.411       .  A
C277        C282   1.402       .  A
C277        C291   1.444       .  S
C278        C283   1.486       .  S
C278        C279   1.403       .  A
C279        C280   1.397       .  A
C279        H298   1.086       .  S
C280        C281   1.413       .  A
C280        C292   1.444       .  S
C281        C282   1.405       .  A
C282        H297   1.085       .  S
C283        C284   1.403       .  A
C283        C288   1.410       .  A
C284        C285   1.401       .  A
C284        H299   1.084       .  S
C285        C286   1.416       .  A
C285        C289   1.444       .  S
C286        C287   1.407       .  A
C287        C288   1.399       .  A
C287        H300   1.084       .  S
C288        C290   1.445       .  S
C289        N293   1.157       .  T
C290        N294   1.157       .  T
C291        N296   1.157       .  T
C292        N295   1.157       .  T
C301        C302   1.412       .  A
C301        C306   1.400       .  A
C301        C315   1.444       .  S
C302        C307   1.485       .  S
C302        C303   1.403       .  A
C303        C304   1.399       .  A
C303        H322   1.085       .  S
C304        C305   1.414       .  A
C304        C316   1.445       .  S
C305        C306   1.403       .  A
C306        H321   1.085       .  S
C307        C308   1.403       .  A
C307        C312   1.412       .  A
C308        C309   1.397       .  A
C308        H323   1.085       .  S
C309        C310   1.413       .  A
C309        C313   1.446   1_455  S
C310        C311   1.403       .  A
C311        C312   1.401       .  A
C311        H324   1.085       .  S
C312        C314   1.444       .  S
C313        N317   1.157       .  T
C314        N318   1.157       .  T
C315        N320   1.157       .  T
C316        N319   1.158       .  T
C325        C326   1.410       .  A
C325        C330   1.397       .  A
C325        C339   1.444       .  S
C326        C331   1.483       .  S
C326        C327   1.404       .  A
C327        C328   1.400       .  A
C327        H346   1.084       .  S
C328        C329   1.412       .  A
C328        C340   1.444       .  S
C329        C330   1.404       .  A
C330        H345   1.085   1_455  S
C331        C332   1.405       .  A
C331        C336   1.412       .  A
C332        C333   1.400       .  A
C332        H347   1.086       .  S
C333        C334   1.410       .  A
C333        C337   1.443   1_556  S
C334        C335   1.402       .  A
C335        C336   1.397       .  A
C335        H348   1.087       .  S
C336        C338   1.445       .  S
C337        N341   1.157       .  T
C338        N342   1.157       .  T
C339        N344   1.157       .  T
C340        N343   1.157       .  T
In349       O351   2.258       .  S
In349       O352   2.246       .  S
In349       O360   2.244       .  S
In349       O354   2.222       .  S
In349       O356   2.241       .  S
In349       O357   2.232       .  S
In349       O358   2.255       .  S
In349       O361   2.240       .  S
C350        O356   1.259       .  A
C350        O358   1.264       .  A
C350        C476   1.467       .  S
O351        C359   1.263       .  A
O352        C359   1.260       .  A
C353        O360   1.264       .  A
C353        O354   1.261       .  A
C353        C682   1.472   1_554  S
C355        O357   1.262       .  A
C355        O361   1.264       .  A
C355        C653   1.477       .  S
C359        C394   1.470       .  S
In362       O364   2.247       .  S
In362       O365   2.261       .  S
In362       O373   2.233       .  S
In362       O367   2.235       .  S
In362       O369   2.236       .  S
In362       O370   2.276       .  S
In362       O371   2.242       .  S
In362       O374   2.241       .  S
C363        O369   1.262       .  A
C363        O371   1.262       .  A
C363        C629   1.479       .  S
O364        C372   1.260       .  A
O365        C372   1.265       .  A
C366        O373   1.262       .  A
C366        O367   1.263       .  A
C366        C610   1.478   1_556  S
C368        O370   1.264       .  A
C368        O374   1.257       .  A
C368        C493   1.472       .  S
C372        C389   1.473       .  S
In375       O377   2.246       .  S
In375       O378   2.264       .  S
In375       O386   2.221       .  S
In375       O380   2.241       .  S
In375       O382   2.237       .  S
In375       O383   2.272       .  S
In375       O384   2.232       .  S
In375       O387   2.245       .  S
C376        O382   1.262       .  A
C376        O384   1.263       .  A
C376        C557   1.484   1_556  S
O377        C385   1.260       .  A
O378        C385   1.265       .  A
C379        O386   1.261       .  A
C379        O380   1.263       .  A
C379        C581   1.471       .  S
C381        O383   1.264       .  A
C381        O387   1.258       .  A
C381        C392   1.473       .  S
C385        C496   1.472   1_455  S
In388       O390   2.258   1_556  S
In388       O391   2.253   1_556  S
In388       O399   2.274       .  S
In388       O393   2.258       .  S
In388       O395   2.264       .  S
In388       O396   2.261   1_556  S
In388       O397   2.265       .  S
In388       O400   2.266   1_556  S
C389        O395   1.258       .  A
C389        O397   1.261       .  A
O390        C398   1.258       .  A
O391        C398   1.260       .  A
C392        O399   1.258       .  A
C392        O393   1.259       .  A
C394        O396   1.259       .  A
C394        O400   1.258       .  A
C398        C415   1.467       .  S
In401       O403   2.232       .  S
In401       O404   2.266       .  S
In401       O412   2.234       .  S
In401       O406   2.239       .  S
In401       O408   2.245       .  S
In401       O409   2.265       .  S
In401       O410   2.227       .  S
In401       O413   2.233       .  S
C402        O408   1.264       .  A
C402        O410   1.262       .  A
C402        C605   1.476       .  S
O403        C411   1.258       .  A
O404        C411   1.265       .  A
C405        O412   1.262       .  A
C405        O406   1.263       .  A
C405        C634   1.486       .  S
C407        O409   1.266       .  A
C407        O413   1.259       .  A
C407        C470   1.469       .  S
C411        C441   1.467       .  S
In414       O416   2.266       .  S
In414       O417   2.241       .  S
In414       O425   2.250       .  S
In414       O419   2.220       .  S
In414       O421   2.236       .  S
In414       O422   2.221       .  S
In414       O423   2.256       .  S
In414       O426   2.250       .  S
C415        O421   1.260       .  A
C415        O423   1.266       .  A
O416        C424   1.265       .  A
O417        C424   1.260       .  A
C418        O425   1.265       .  A
C418        O419   1.261       .  A
C418        C509   1.478       .  S
C420        O422   1.262       .  A
C420        O426   1.265       .  A
C420        C533   1.476   1_554  S
C424        C472   1.472       .  S
In427       O429   2.258       .  S
In427       O430   2.233       .  S
In427       O438   2.244       .  S
In427       O432   2.224       .  S
In427       O434   2.238       .  S
In427       O435   2.219       .  S
In427       O436   2.260       .  S
In427       O439   2.250       .  S
C428        O434   1.260       .  A
C428        O436   1.264       .  A
C428        C450   1.468       .  S
O429        C437   1.264       .  A
O430        C437   1.259       .  A
C431        O438   1.265       .  A
C431        O432   1.261       .  A
C431        C538   1.479       .  S
C433        O435   1.262       .  A
C433        O439   1.265       .  A
C433        C514   1.476       .  S
C437        C502   1.466       .  S
In440       O447   2.263       .  S
In440       O448   2.246       .  S
In440       O449   2.249       .  S
In440       O452   2.268       .  S
C441        O447   1.257       .  A
C441        O449   1.259       .  A
O442        C450   1.258       .  A
O443        C450   1.259       .  A
C444        O451   1.259   1_565  A
C444        O445   1.261       .  A
C444        C459   1.475   1_655  S
C446        O448   1.260       .  A
C446        O452   1.258       .  A
C446        C480   1.467       .  S
In453       O455   2.243       .  S
In453       O464   2.228       .  S
In453       O458   2.239       .  S
In453       O460   2.238       .  S
In453       O462   2.235       .  S
In453       O465   2.245       .  S
C454        O460   1.263       .  A
C454        O462   1.263       .  A
C454        C586   1.479       .  S
O455        C463   1.257       .  A
C457        O464   1.262       .  A
C457        O458   1.263       .  A
C457        C562   1.480       .  S
C459        O465   1.260       .  A
C463        C467   1.474       .  S
In466       O468   2.257       .  S
In466       O469   2.257       .  S
In466       O477   2.267       .  S
In466       O471   2.251       .  S
C467        O473   1.260       .  A
C467        O475   1.258   1_565  A
O468        C476   1.258       .  A
O469        C476   1.260       .  A
C470        O477   1.259       .  A
C470        O471   1.260       .  A
C472        O474   1.259       .  A
C472        O478   1.259       .  A
In479       O481   2.256       .  S
In479       O482   2.230   1_655  S
In479       O490   2.236   1_655  S
In479       O484   2.225       .  S
In479       O486   2.226   1_655  S
In479       O487   2.220       .  S
In479       O488   2.265       .  S
In479       O491   2.236   1_655  S
C480        O486   1.258   1_655  A
C480        O488   1.266       .  A
O481        C489   1.266       .  A
O482        C489   1.259   1_455  A
C483        O490   1.264       .  A
C483        O484   1.262   1_455  A
C483        C677   1.476       .  S
C485        O487   1.263   1_455  A
C485        O491   1.264       .  A
C485        C658   1.474       .  S
C489        C498   1.466       .  S
In492       O494   2.263       .  S
In492       O495   2.248       .  S
In492       O503   2.264       .  S
In492       O497   2.258       .  S
In492       O499   2.251       .  S
In492       O500   2.255       .  S
In492       O501   2.270       .  S
In492       O504   2.260       .  S
C493        O499   1.260       .  A
C493        O501   1.259       .  A
O494        C502   1.258       .  A
O495        C502   1.259       .  A
C496        O503   1.260       .  A
C496        O497   1.261       .  A
C498        O500   1.259       .  A
C498        O504   1.256       .  A
C505        C506   1.411       .  A
C505        C510   1.402       .  A
C505        C519   1.444       .  S
C506        C511   1.484       .  S
C506        C507   1.401       .  A
C507        C508   1.398       .  A
C507        H526   1.085       .  S
C508        C509   1.415       .  A
C508        C520   1.445       .  S
C509        C510   1.404       .  A
C510        H525   1.085       .  S
C511        C512   1.402       .  A
C511        C516   1.412       .  A
C512        C513   1.396       .  A
C512        H527   1.085       .  S
C513        C514   1.412       .  A
C513        C517   1.445       .  S
C514        C515   1.405       .  A
C515        C516   1.403       .  A
C515        H528   1.084       .  S
C516        C518   1.444       .  S
C517        N521   1.157       .  T
C518        N522   1.157       .  T
C519        N524   1.157       .  T
C520        N523   1.157       .  T
C529        C530   1.413       .  A
C529        C534   1.403       .  A
C529        C543   1.444       .  S
C530        C535   1.486       .  S
C530        C531   1.402       .  A
C531        C532   1.397       .  A
C531        H550   1.085       .  S
C532        C533   1.413       .  A
C532        C544   1.446       .  S
C533        C534   1.403       .  A
C534        H549   1.085   1_556  S
C535        C536   1.402       .  A
C535        C540   1.412       .  A
C536        C537   1.398       .  A
C536        H551   1.085       .  S
C537        C538   1.416       .  A
C537        C541   1.445       .  S
C538        C539   1.404       .  A
C539        C540   1.401       .  A
C539        H552   1.084       .  S
C540        C542   1.444       .  S
C541        N545   1.158       .  T
C542        N546   1.157       .  T
C543        N548   1.157       .  T
C544        N547   1.157       .  T
C553        C554   1.410       .  A
C553        C558   1.399       .  A
C553        C567   1.444       .  S
C554        C559   1.485       .  S
C554        C555   1.403       .  A
C555        C556   1.399       .  A
C555        H574   1.084       .  S
C556        C557   1.416       .  A
C556        C568   1.444   1_554  S
C557        C558   1.407       .  A
C558        H573   1.084       .  S
C559        C560   1.404       .  A
C559        C564   1.410       .  A
C560        C561   1.398       .  A
C560        H575   1.087       .  S
C561        C562   1.415       .  A
C561        C565   1.444       .  S
C562        C563   1.405       .  A
C563        C564   1.398       .  A
C563        H576   1.085       .  S
C564        C566   1.444       .  S
C565        N569   1.157       .  T
C566        N570   1.157   1_455  T
C567        N572   1.157       .  T
C568        N571   1.157       .  T
C577        C578   1.412       .  A
C577        C582   1.400       .  A
C577        C591   1.444       .  S
C578        C583   1.483       .  S
C578        C579   1.402       .  A
C579        C580   1.396       .  A
C579        H598   1.084       .  S
C580        C581   1.412       .  A
C580        C592   1.446       .  S
C581        C582   1.402       .  A
C582        H597   1.085       .  S
C583        C584   1.403       .  A
C583        C588   1.411       .  A
C584        C585   1.400       .  A
C584        H599   1.085       .  S
C585        C586   1.413       .  A
C585        C589   1.444       .  S
C586        C587   1.405       .  A
C587        C588   1.399       .  A
C587        H600   1.085       .  S
C588        C590   1.445       .  S
C589        N593   1.157       .  T
C590        N594   1.157       .  T
C591        N596   1.157       .  T
C592        N595   1.157       .  T
C601        C602   1.412       .  A
C601        C606   1.403       .  A
C601        C615   1.444       .  S
C602        C607   1.486       .  S
C602        C603   1.402       .  A
C603        C604   1.396       .  A
C603        H622   1.085       .  S
C604        C605   1.412       .  A
C604        C616   1.445       .  S
C605        C606   1.405       .  A
C606        H621   1.085       .  S
C607        C608   1.404       .  A
C607        C612   1.412       .  A
C608        C609   1.400       .  A
C608        H623   1.085       .  S
C609        C610   1.412       .  A
C609        C613   1.444   1_554  S
C610        C611   1.404       .  A
C611        C612   1.399       .  A
C611        H624   1.085       .  S
C612        C614   1.444       .  S
C613        N617   1.157       .  T
C614        N618   1.157       .  T
C615        N620   1.157       .  T
C616        N619   1.157       .  T
C625        C626   1.411       .  A
C625        C630   1.402       .  A
C625        C639   1.444       .  S
C626        C631   1.486       .  S
C626        C627   1.403       .  A
C627        C628   1.397       .  A
C627        H646   1.086       .  S
C628        C629   1.413       .  A
C628        C640   1.444       .  S
C629        C630   1.405       .  A
C630        H645   1.085       .  S
C631        C632   1.403       .  A
C631        C636   1.410       .  A
C632        C633   1.401       .  A
C632        H647   1.084       .  S
C633        C634   1.416       .  A
C633        C637   1.444       .  S
C634        C635   1.407       .  A
C635        C636   1.399       .  A
C635        H648   1.084       .  S
C636        C638   1.445       .  S
C637        N641   1.157       .  T
C638        N642   1.157       .  T
C639        N644   1.157       .  T
C640        N643   1.157       .  T
C649        C650   1.412       .  A
C649        C654   1.400       .  A
C649        C663   1.444       .  S
C650        C655   1.485       .  S
C650        C651   1.403       .  A
C651        C652   1.399       .  A
C651        H670   1.085       .  S
C652        C653   1.414       .  A
C652        C664   1.445       .  S
C653        C654   1.403       .  A
C654        H669   1.085       .  S
C655        C656   1.403       .  A
C655        C660   1.412       .  A
C656        C657   1.397       .  A
C656        H671   1.085       .  S
C657        C658   1.413       .  A
C657        C661   1.446   1_455  S
C658        C659   1.403       .  A
C659        C660   1.401       .  A
C659        H672   1.085       .  S
C660        C662   1.444       .  S
C661        N665   1.157       .  T
C662        N666   1.157       .  T
C663        N668   1.157       .  T
C664        N667   1.158       .  T
C673        C674   1.410       .  A
C673        C678   1.397       .  A
C673        C687   1.444       .  S
C674        C679   1.483       .  S
C674        C675   1.404       .  A
C675        C676   1.400       .  A
C675        H694   1.084       .  S
C676        C677   1.412       .  A
C676        C688   1.444       .  S
C677        C678   1.404       .  A
C678        H693   1.085   1_455  S
C679        C680   1.405       .  A
C679        C684   1.411       .  A
C680        C681   1.400       .  A
C680        H695   1.086       .  S
C681        C682   1.410       .  A
C681        C685   1.443   1_556  S
C682        C683   1.402       .  A
C683        C684   1.397       .  A
C683        H696   1.087       .  S
C684        C686   1.445       .  S
C685        N689   1.157       .  T
C686        N690   1.157       .  T
C687        N692   1.157       .  T
C688        N691   1.157       .  T
