geometry optimzed in LAMMPS
_audit_creation_date              2020-11-30 
_audit_creation_method            'lammps2cif' 
_symmetry_space_group_name_H-M    'P1' 
_symmetry_Int_Tables_number       1 
_symmetry_cell_setting            triclinic 
loop_ 
_symmetry_equiv_pos_as_xyz 
  x,y,z 
_cell_length_a                    44.9525644 
_cell_length_b                    44.940201586979384 
_cell_length_c                    40.282945363906606 
_cell_angle_alpha                 90.1838225198079 
_cell_angle_beta                  89.62461930223368 
_cell_angle_gamma                 89.37716019818832 
loop_ 
_atom_site_label 
_atom_site_type_symbol 
_atom_site_fract_x 
_atom_site_fract_y 
_atom_site_fract_z 
_atom_site_charge 
In1        In  0.59246411  0.11302215  0.29463118     1.36900
C2          C  0.61138556  0.14235326  0.34885645     0.77500
O3          O  0.55069230  0.14125599  0.28589879    -0.61000
O4          O  0.54736115  0.09409581  0.28747695    -0.51900
C5          C  0.62039221  0.11865976  0.23566266     0.70100
O6          O  0.63281682  0.12430693  0.26286268    -0.46700
C7          C  0.60321858  0.05723540  0.31369101     0.74800
O8          O  0.62788713  0.12597092  0.33119411    -0.58600
O9          O  0.58420786  0.07362208  0.32806547    -0.48700
O10         O  0.58603731  0.14688471  0.33652213    -0.55000
C11         C  0.53387576  0.11876768  0.28440424     0.85000
O12         O  0.59284637  0.11457413  0.23837269    -0.56900
O13         O  0.61565150  0.06905349  0.28915084    -0.60200
In14       In  0.60968381  0.10113589  0.64430685     1.36900
C15         C  0.62801856  0.13087946  0.58998561     0.77500
O16         O  0.61384056  0.05783748  0.61634817    -0.61000
O17         O  0.60724828  0.05692198  0.66854152    -0.51900
C18         C  0.64212374  0.10600585  0.70002896     0.70100
O19         O  0.65370475  0.10014143  0.67212921    -0.46700
C20         C  0.55026610  0.10840259  0.64511797     0.74800
O21         O  0.63969137  0.10671254  0.59921774    -0.58600
O22         O  0.56740277  0.12614953  0.65992605    -0.48700
O23         O  0.60959141  0.14164017  0.61065495    -0.55000
C24         C  0.61147652  0.04230370  0.64223599     0.85000
O25         O  0.61518673  0.11399916  0.69830236    -0.56900
O26         O  0.56366303  0.08767024  0.62986836    -0.60200
In27       In  0.61207258  0.78397164  0.31944813     1.36900
C28         C  0.63170212  0.75230896  0.37131811     0.77500
O29         O  0.60017092  0.82581492  0.34650667    -0.61000
O30         O  0.63921983  0.82551013  0.31660560    -0.51900
C31         C  0.63320447  0.78068281  0.25727472     0.70100
O32         O  0.64657286  0.76881619  0.28142280    -0.46700
C33         C  0.55331269  0.77699388  0.31541071     0.74800
O34         O  0.64402152  0.77578431  0.36184500    -0.58600
O35         O  0.56550773  0.80021234  0.32623048    -0.48700
O36         O  0.61150962  0.74343952  0.35229448    -0.55000
C37         C  0.62171793  0.84033416  0.33497405     0.85000
O38         O  0.60830226  0.79188780  0.26467810    -0.56900
O39         O  0.57138705  0.75642724  0.30714566    -0.60200
In40       In  0.61631988  0.76428501  0.66122386     1.36900
C41         C  0.63554274  0.73236871  0.60968058     0.77500
O42         O  0.57159353  0.78437438  0.65529877    -0.61000
O43         O  0.57346371  0.73976036  0.67243801    -0.51900
C44         C  0.64187299  0.75798276  0.71992392     0.70100
O45         O  0.65641583  0.75554342  0.69315329    -0.46700
C46         C  0.62437414  0.82182505  0.65029584     0.74800
O47         O  0.64982101  0.75388328  0.62130562    -0.58600
O48         O  0.63088368  0.80903919  0.67700956    -0.48700
O49         O  0.61349892  0.72476483  0.62703368    -0.55000
C50         C  0.55735303  0.76187537  0.66459715     0.85000
O51         O  0.61407456  0.75884981  0.71631196    -0.56900
O52         O  0.61438751  0.80485411  0.62808692    -0.60200
In53       In  0.25269981  0.11190401  0.29292955     1.36900
C54         C  0.23442741  0.14269449  0.34724494     0.77500
O55         O  0.26507053  0.07192497  0.32367255    -0.61000
O56         O  0.23124822  0.06755132  0.28772982    -0.51900
C57         C  0.22608659  0.11450405  0.23320272     0.70100
O58         O  0.21321883  0.12351190  0.25940166    -0.46700
C59         C  0.31104809  0.11848940  0.28270402     0.74800
O60         O  0.25539732  0.15130238  0.32878891    -0.58600
O61         O  0.29931836  0.09519157  0.29389876    -0.48700
O62         O  0.22083801  0.12068921  0.33569531    -0.55000
C63         C  0.24688909  0.05503964  0.30950728     0.85000
O64         O  0.25289819  0.10729330  0.23735041    -0.56900
O65         O  0.29271182  0.13941732  0.27678548    -0.60200
In66       In  0.26742444  0.11629945  0.64239768     1.36900
C67         C  0.25706402  0.05873969  0.63296644     0.77500
O68         O  0.27219503  0.10851365  0.69720560    -0.61000
O69         O  0.23460391  0.13340632  0.68202825    -0.51900
C70         C  0.32687102  0.12059454  0.64242661     0.70100
O71         O  0.31272705  0.10030006  0.62800037    -0.46700
C72         C  0.24483584  0.14533827  0.58893522     0.74800
O73         O  0.27733428  0.07258800  0.61806250    -0.58600
O74         O  0.26611294  0.15545704  0.60571575    -0.48700
O75         O  0.24088996  0.07473358  0.65154315    -0.55000
C76         C  0.24765207  0.12007872  0.70555492     0.85000
O77         O  0.31039958  0.14000770  0.65650571    -0.56900
O78         O  0.23331216  0.12269714  0.60173038    -0.60200
In79       In  0.27180963  0.77917493  0.29944414     1.36900
C80         C  0.26242111  0.83621733  0.31294605     0.77500
O81         O  0.27064766  0.77550863  0.24332050    -0.61000
O82         O  0.23020263  0.76954946  0.26901620    -0.51900
C83         C  0.33107281  0.77425402  0.29490217     0.70100
O84         O  0.31700586  0.79860772  0.29702835    -0.46700
C85         C  0.25374476  0.75200313  0.35510190     0.74800
O86         O  0.25139372  0.82296718  0.28851004    -0.58600
O87         O  0.24186250  0.77524360  0.34381461    -0.48700
O88         O  0.27925106  0.82033451  0.33065769    -0.55000
C89         C  0.24276662  0.77347489  0.24129826     0.85000
O90         O  0.31458162  0.75162908  0.29313983    -0.56900
O91         O  0.27278451  0.74028624  0.33580515    -0.60200
In92       In  0.27725889  0.78078262  0.65126176     1.36900
C93         C  0.25764614  0.75278463  0.59675598     0.77500
O94         O  0.25143983  0.82294754  0.65863248    -0.61000
O95         O  0.28906003  0.82400370  0.62660277    -0.51900
C96         C  0.25245001  0.77696562  0.71148016     0.70100
O97         O  0.23938303  0.76840848  0.68554415    -0.46700
C98         C  0.33547715  0.77221774  0.65643961     0.74800
O99         O  0.27592621  0.74059834  0.61618797    -0.58600
O100        O  0.31739016  0.75151005  0.66254461    -0.48700
O101        O  0.24801250  0.77753911  0.60681023    -0.55000
C102        C  0.26785860  0.83828036  0.64012714     0.85000
O103        O  0.27925609  0.78367764  0.70695116    -0.56900
O104        O  0.32348369  0.79638455  0.64755940    -0.60200
In105      In  0.12100271  0.86610704  0.97455571     1.36900
C106        C  0.14870202  0.84812489  0.91809596     0.77500
O107        O  0.10193007  0.82019045  0.97222654    -0.61000
O108        O  0.07110505  0.85564501  0.97892198    -0.51900
C109        C  0.14527463  0.84901348  0.03318159     0.70100
O110        O  0.15912950  0.84916640  0.00591327    -0.46700
C111        C  0.11763129  0.92711472  0.96925153     0.74800
O112        O  0.16206453  0.85279311  0.94493893    -0.58600
O113        O  0.09597404  0.91033960  0.96341716    -0.48700
O114        O  0.12123242  0.85399037  0.91958814    -0.55000
C115        C  0.07506904  0.82785989  0.97577238     0.85000
O116        O  0.11910922  0.85939998  0.03111584    -0.56900
O117        O  0.14046906  0.91294887  0.97831357    -0.60200
In118      In  0.01029586  0.76168578  0.97437503     1.36900
C119        C  0.02577743  0.73456381  0.03110346     0.77500
O120        O  0.05725927  0.77805619  0.97460367    -0.61000
O121        O  0.02346637  0.81113881  0.97685320    -0.51900
C122        C  0.02742348  0.73852501  0.91526469     0.70100
O123        O  0.02904619  0.72474638  0.94234748    -0.46700
C124        C  0.94926864  0.76250226  0.97673964     0.74800
O125        O  0.02357621  0.72130340  0.00365301    -0.58600
O126        O  0.96443492  0.78598857  0.97501358    -0.48700
O127        O  0.01867472  0.76182245  0.03006856    -0.55000
C128        C  0.05111450  0.80540117  0.97589511     0.85000
O129        O  0.01503315  0.76381207  0.91783873    -0.56900
O130        O  0.96510548  0.73925578  0.97684615    -0.60200
In131      In  0.00841458  0.12962462  0.96337372     1.36900
C132        C  0.02699039  0.15481120  0.90595814     0.77500
O133        O  0.02038370  0.07966667  0.96181208    -0.61000
O134        O  0.05476197  0.11122231  0.96612562    -0.51900
C135        C  0.02624504  0.15312333  0.02168340     0.70100
O136        O  0.02535266  0.16747199  0.99487191    -0.46700
C137        C  0.94725548  0.12718788  0.96368809     0.74800
O138        O  0.01973614  0.12785126  0.90795260    -0.58600
O139        O  0.96381728  0.10464231  0.95945098    -0.48700
O140        O  0.02244392  0.16916435  0.93242861    -0.55000
C141        C  0.04804566  0.08418722  0.96399335     0.85000
O142        O  0.01573789  0.12722932  0.01937574    -0.56900
O143        O  0.96175028  0.15074684  0.96767003    -0.60200
In144      In  0.11712307  0.02137680  0.96324217     1.36900
C145        C  0.13831276  0.03922045  0.02199376     0.77500
O146        O  0.06712371  0.03308622  0.96108382    -0.61000
O147        O  0.09846371  0.06763180  0.96635494    -0.51900
C148        C  0.14543957  0.03876644  0.90706529     0.70100
O149        O  0.15874853  0.03168204  0.93331427    -0.46700
C150        C  0.11683308  0.96034982  0.96611848     0.74800
O151        O  0.15261585  0.04076206  0.99506580    -0.58600
O152        O  0.09427244  0.97556302  0.95783223    -0.48700
O153        O  0.11312856  0.02727591  0.01930764    -0.55000
C154        C  0.07150215  0.06078993  0.96386864     0.85000
O155        O  0.11775172  0.03463246  0.90851024    -0.56900
O156        O  0.13916256  0.97610452  0.97193166    -0.60200
In157      In  0.85503677  0.75757991  0.98139315     1.36900
C158        C  0.83608700  0.73358758  0.92405830     0.77500
O159        O  0.80861904  0.77508533  0.97772691    -0.61000
O160        O  0.84236100  0.80701206  0.98522355    -0.51900
C161        C  0.83786055  0.73224122  0.03937111     0.70100
O162        O  0.84475703  0.71755682  0.01371083    -0.46700
C163        C  0.91597609  0.76150834  0.97855597     0.74800
O164        O  0.83656498  0.71983452  0.95123495    -0.58600
O165        O  0.89904674  0.78407046  0.97970484    -0.48700
O166        O  0.84762150  0.75904941  0.92545062    -0.55000
C167        C  0.81489479  0.80206085  0.98166952     0.85000
O168        O  0.84211024  0.75979780  0.03634450    -0.56900
O169        O  0.90193423  0.73742062  0.97918733    -0.60200
In170      In  0.74573989  0.86389618  0.98408429     1.36900
C171        C  0.72069699  0.84523830  0.04125018     0.77500
O172        O  0.79544096  0.85257887  0.98587404    -0.61000
O173        O  0.76433274  0.81784176  0.97982263    -0.51900
C174        C  0.72327962  0.84810820  0.92562233     0.70100
O175        O  0.70782542  0.85045325  0.95173749    -0.46700
C176        C  0.74747064  0.92436674  0.98189894     0.74800
O177        O  0.74659248  0.85568504  0.03962933    -0.58600
O178        O  0.77036868  0.90832881  0.98568789    -0.48700
O179        O  0.70697213  0.84620040  0.01414759    -0.55000
C180        C  0.79121644  0.82496447  0.98243029     0.85000
O181        O  0.75001624  0.85578083  0.92891304    -0.56900
O182        O  0.72385545  0.90968245  0.98005468    -0.60200
In183      In  0.85281506  0.12654489  0.96437565     1.36900
C184        C  0.83048795  0.15201452  0.01970384     0.77500
O185        O  0.84258632  0.07709561  0.97452219    -0.61000
O186        O  0.80822139  0.10590524  0.95815389    -0.51900
C187        C  0.83655357  0.15148126  0.90688416     0.70100
O188        O  0.84119449  0.16619378  0.93297555    -0.46700
C189        C  0.91390480  0.12642051  0.96403346     0.74800
O190        O  0.82879994  0.16380852  0.99148891    -0.58600
O191        O  0.89877958  0.10388888  0.95649051    -0.48700
O192        O  0.84509730  0.12785024  0.01997362    -0.55000
C193        C  0.81532472  0.08014717  0.96745463     0.85000
O194        O  0.84290013  0.12411967  0.90928973    -0.56900
O195        O  0.89798590  0.14860927  0.97187668    -0.60200
In196      In  0.74749334  0.01780669  0.97476700     1.36900
C197        C  0.72530735  0.02959312  0.91443557     0.77500
O198        O  0.79698542  0.03026283  0.97946996    -0.61000
O199        O  0.76578988  0.06263581  0.96344280    -0.51900
C200        C  0.72101285  0.03909807  0.03064274     0.70100
O201        O  0.70810032  0.03729412  0.00308933    -0.46700
C202        C  0.74794226  0.95739177  0.97947551     0.74800
O203        O  0.71089219  0.03307248  0.94116263    -0.58600
O204        O  0.77139229  0.97258203  0.97959519    -0.48700
O205        O  0.75073292  0.01781779  0.91822223    -0.55000
C206        C  0.79248095  0.05678450  0.97013518     0.85000
O207        O  0.74726328  0.02887894  0.03006341    -0.56900
O208        O  0.72460656  0.97290120  0.97681581    -0.60200
In209      In  0.10853705  0.26954547  0.28692607     1.36900
C210        C  0.04964684  0.27663821  0.28840923     0.77500
O211        O  0.11847051  0.26617070  0.23171066    -0.61000
O212        O  0.10980841  0.22625391  0.25683873    -0.51900
C213        C  0.12440807  0.32649195  0.29211950     0.70100
O214        O  0.10308190  0.31522486  0.30802806    -0.46700
C215        C  0.13221522  0.24607744  0.34243353     0.74800
O216        O  0.06377200  0.26330338  0.31084850    -0.58600
O217        O  0.14591270  0.26464270  0.32462917    -0.48700
O218        O  0.06568035  0.28647183  0.26534824    -0.55000
C219        C  0.11318169  0.23883188  0.22916387     0.85000
O220        O  0.13880284  0.30821220  0.27401156    -0.56900
O221        O  0.10851763  0.23693725  0.32958485    -0.60200
In222      In  0.09596620  0.27148555  0.63612167     1.36900
C223        C  0.12553400  0.24770091  0.58387888     0.77500
O224        O  0.05266737  0.28566125  0.61284874    -0.61000
O225        O  0.05263970  0.24794371  0.64401323    -0.51900
C226        C  0.10147368  0.24960864  0.69779669     0.70100
O227        O  0.11121907  0.23604662  0.67240797    -0.46700
C228        C  0.10408347  0.33009331  0.63585807     0.74800
O229        O  0.10218497  0.23685226  0.59588295    -0.58600
O230        O  0.08306576  0.31724898  0.62130516    -0.48700
O231        O  0.13549471  0.26914562  0.60053042    -0.55000
C232        C  0.03760462  0.26570847  0.62660936     0.85000
O233        O  0.09192370  0.27550502  0.69192285    -0.56900
O234        O  0.12197817  0.31266393  0.65057692    -0.60200
In235      In  0.76935374  0.27975254  0.28769270     1.36900
C236        C  0.74402318  0.25587039  0.34210218     0.77500
O237        O  0.81275112  0.29388546  0.26456326    -0.61000
O238        O  0.81367547  0.27271111  0.31137120    -0.51900
C239        C  0.76279774  0.24887064  0.23075805     0.70100
O240        O  0.77166027  0.23749610  0.25748384    -0.46700
C241        C  0.75625607  0.33726245  0.29523777     0.74800
O242        O  0.73153517  0.27637470  0.32577159    -0.58600
O243        O  0.77628171  0.32388456  0.31130242    -0.48700
O244        O  0.76696969  0.24537297  0.32813535    -0.55000
C245        C  0.82834174  0.28424684  0.28812637     0.85000
O246        O  0.75380943  0.27540626  0.23394309    -0.56900
O247        O  0.74217638  0.32095036  0.27516364    -0.60200
In248      In  0.75699885  0.26862569  0.64338043     1.36900
C249        C  0.81615326  0.26627672  0.63769858     0.77500
O250        O  0.75723787  0.27113631  0.69896487    -0.61000
O251        O  0.74474632  0.23019955  0.67759129    -0.51900
C252        C  0.74527077  0.32689675  0.64664310     0.70100
O253        O  0.76659691  0.31505170  0.63084953    -0.46700
C254        C  0.73546095  0.24676741  0.58597345     0.74800
O255        O  0.80134480  0.24553569  0.65042541    -0.58600
O256        O  0.71972563  0.26293109  0.60506690    -0.48700
O257        O  0.80066920  0.28797689  0.62797098    -0.55000
C258        C  0.75132220  0.24420004  0.70375040     0.85000
O259        O  0.72779889  0.30841182  0.66002449    -0.56900
O260        O  0.76012790  0.23954201  0.59811048    -0.60200
In261      In  0.09507155  0.60309574  0.29397364     1.36900
C262        C  0.12054839  0.62353996  0.34983684     0.77500
O263        O  0.05266006  0.62839125  0.30409024    -0.61000
O264        O  0.05062221  0.58147776  0.30103735    -0.51900
C265        C  0.09701824  0.62871079  0.23410901     0.70100
O266        O  0.11022299  0.63965199  0.25883084    -0.46700
C267        C  0.11403021  0.54687487  0.29294106     0.74800
O268        O  0.13219071  0.60332323  0.33218628    -0.58600
O269        O  0.09287233  0.55647256  0.31094856    -0.48700
O270        O  0.09792515  0.63536069  0.33701282    -0.55000
C271        C  0.03666201  0.60563654  0.30531580     0.85000
O272        O  0.08578931  0.60368188  0.23949221    -0.56900
O273        O  0.12593323  0.56634950  0.27458029    -0.60200
In274      In  0.09649561  0.61168312  0.64954708     1.36900
C275        C  0.12240740  0.62977234  0.59311146     0.77500
O276        O  0.08361531  0.56712840  0.63076000    -0.61000
O277        O  0.12115834  0.56876000  0.66239978    -0.51900
C278        C  0.10270876  0.64625457  0.70390352     0.70100
O279        O  0.09429424  0.65598753  0.67623776    -0.46700
C280        C  0.03794571  0.60937424  0.65070942     0.74800
O281        O  0.13533785  0.61210664  0.61280477    -0.58600
O282        O  0.05213563  0.62133748  0.62730229    -0.48700
O283        O  0.09833304  0.64038682  0.60424525    -0.55000
C284        C  0.10354924  0.55274357  0.64578853     0.85000
O285        O  0.11201309  0.61967099  0.70272997    -0.56900
O286        O  0.05384454  0.59884134  0.67356256    -0.60200
In287      In  0.76011774  0.61622482  0.31206386     1.36900
C288        C  0.81731850  0.61550052  0.32639467     0.77500
O289        O  0.77603694  0.61536751  0.25908902    -0.61000
O290        O  0.74578932  0.64975695  0.27189854    -0.51900
C291        C  0.74567231  0.55880472  0.31355758     0.70100
O292        O  0.76162546  0.57132987  0.33492669    -0.46700
C293        C  0.73446593  0.64172212  0.36533102     0.74800
O294        O  0.80196110  0.59234058  0.32512598    -0.58600
O295        O  0.72040475  0.62403841  0.34681810    -0.48700
O296        O  0.80313893  0.63934575  0.32115016    -0.55000
C297        C  0.76280179  0.63864601  0.24984990     0.85000
O298        O  0.73468474  0.57637233  0.29220064    -0.56900
O299        O  0.75930527  0.64919275  0.35379584    -0.60200
In300      In  0.75877506  0.60833514  0.66529755     1.36900
C301        C  0.73711833  0.63051058  0.60854419     0.77500
O302        O  0.80331977  0.59940328  0.68804462    -0.61000
O303        O  0.80155147  0.61538688  0.63861067    -0.51900
C304        C  0.75126699  0.64173055  0.72030788     0.70100
O305        O  0.75589035  0.65243571  0.69199085    -0.46700
C306        C  0.74886871  0.54969635  0.66273247     0.74800
O307        O  0.72376385  0.61049660  0.62465666    -0.58600
O308        O  0.77208998  0.56211928  0.65230656    -0.48700
O309        O  0.75914671  0.64102377  0.62340613    -0.55000
C310        C  0.81750196  0.60747746  0.66259474     0.85000
O311        O  0.74593878  0.61426914  0.71986632    -0.56900
O312        O  0.72947620  0.56758775  0.67450410    -0.60200
C313        C  0.76270489  0.68511307  0.50603457    -0.17900
C314        C  0.76144684  0.68758820  0.47141184    -0.20100
C315        C  0.74181919  0.66996299  0.45303616     0.20500
C316        C  0.72232329  0.65069860  0.46985183    -0.03000
C317        C  0.72359848  0.64819562  0.50485346    -0.06100
C318        C  0.74430723  0.66505508  0.52293709     0.20800
C319        C  0.70525444  0.62769533  0.52151396     0.19000
C320        C  0.68503906  0.61074254  0.50320292    -0.17600
C321        C  0.68380888  0.61319438  0.46859097    -0.19800
C322        C  0.70278850  0.63258203  0.45157887     0.20500
C323        C  0.70415953  0.63251466  0.41665005    -0.32800
C324        C  0.72535991  0.64972885  0.39979720     0.01200
C325        C  0.74294249  0.66962594  0.41814880    -0.24200
C326        C  0.74716539  0.66053713  0.55731615    -0.28700
C327        C  0.72978150  0.63920286  0.57392519     0.06800
C328        C  0.70834080  0.62344094  0.55592271    -0.27400
H329        H  0.77868133  0.69833640  0.51951468     0.11500
H330        H  0.77652061  0.70255352  0.45892263     0.12700
H331        H  0.67075025  0.59497253  0.51556004     0.11800
H332        H  0.66863061  0.59913448  0.45501126     0.11000
H333        H  0.69065262  0.61700677  0.40280289     0.16400
H334        H  0.75932619  0.68302376  0.40542704     0.12300
H335        H  0.76394752  0.67268239  0.57086420     0.15200
H336        H  0.69509989  0.60680347  0.56835022     0.14900
C337        C  0.91476394  0.57928063  0.70834048    -0.17900
C338        C  0.94576100  0.57900852  0.70626771    -0.20100
C339        C  0.96018210  0.59260879  0.67943284     0.20500
C340        C  0.94333364  0.60623025  0.65414063    -0.03000
C341        C  0.91212710  0.60650011  0.65622554    -0.06100
C342        C  0.89781423  0.59309395  0.68357929     0.20800
C343        C  0.89527091  0.62036257  0.63110667     0.19000
C344        C  0.90969268  0.63364778  0.60404982    -0.17600
C345        C  0.94070669  0.63337341  0.60198269    -0.19800
C346        C  0.95767082  0.61990954  0.62697884     0.20500
C347        C  0.98872128  0.62034366  0.62565874    -0.32800
C348        C  0.00548486  0.60753461  0.65125916     0.01200
C349        C  0.99117956  0.59328964  0.67776538    -0.24200
C350        C  0.86679319  0.59374317  0.68567445    -0.28700
C351        C  0.84999998  0.60737704  0.66066944     0.06800
C352        C  0.86426839  0.62067527  0.63348686    -0.27400
H353        H  0.90404430  0.56881462  0.72939745     0.11500
H354        H  0.95846216  0.56840772  0.72578752     0.12700
H355        H  0.89699566  0.64432232  0.58458908     0.11800
H356        H  0.95143781  0.64391821  0.58096621     0.11000
H357        H  0.99982720  0.63112760  0.60502215     0.16400
H358        H  0.00416147  0.58314059  0.69738154     0.12300
H359        H  0.85571008  0.58341577  0.70660665     0.15200
H360        H  0.85124928  0.63131175  0.61422949     0.14900
C361        C  0.90996609  0.55745210  0.32797117    -0.17900
C362        C  0.94072939  0.55602089  0.32307517    -0.20100
C363        C  0.95720768  0.58220099  0.31995568     0.20500
C364        C  0.94266911  0.61014016  0.32227653    -0.03000
C365        C  0.91166354  0.61159165  0.32713073    -0.06100
C366        C  0.89525002  0.58509718  0.32963441     0.20800
C367        C  0.89699373  0.63951526  0.32841969     0.19000
C368        C  0.91349564  0.66570542  0.32578219    -0.17600
C369        C  0.94430030  0.66426022  0.32114848    -0.19800
C370        C  0.95902537  0.63661965  0.31908885     0.20500
C371        C  0.98978230  0.63495813  0.31364573    -0.32800
C372        C  0.00434171  0.60719895  0.31120910     0.01200
C373        C  0.98794153  0.58093350  0.31433845    -0.24200
C374        C  0.86427108  0.58669529  0.33211588    -0.28700
C375        C  0.84954601  0.61438801  0.33124138     0.06800
C376        C  0.86596267  0.64073096  0.33070723    -0.27400
H377        H  0.89761521  0.53694987  0.32981785     0.11500
H378        H  0.95160950  0.53441602  0.32141130     0.12700
H379        H  0.90252072  0.68726969  0.32672862     0.11800
H380        H  0.95658083  0.68478508  0.31878736     0.11000
H381        H  0.00237480  0.65529022  0.31111341     0.16400
H382        H  0.99911564  0.55947903  0.31242913     0.12300
H383        H  0.85157043  0.56632200  0.33271719     0.15200
H384        H  0.85455521  0.66209951  0.33026593     0.14900
C385        C  0.16742381  0.59136288  0.45434870    -0.17900
C386        C  0.16784462  0.59230755  0.48912843    -0.20100
C387        C  0.15248851  0.61489163  0.50654200     0.20500
C388        C  0.13778147  0.63757333  0.48859070    -0.03000
C389        C  0.13734829  0.63661351  0.45344858    -0.06100
C390        C  0.15162879  0.61298121  0.43629393     0.20800
C391        C  0.12111722  0.65830667  0.43563258     0.19000
C392        C  0.10694317  0.68167900  0.45294581    -0.17600
C393        C  0.10735356  0.68261917  0.48768198    -0.19800
C394        C  0.12196296  0.66020540  0.50573991     0.20500
C395        C  0.11939386  0.65897876  0.54049382    -0.32800
C396        C  0.13230349  0.63535927  0.55844386     0.01200
C397        C  0.14996345  0.61413601  0.54141859    -0.24200
C398        C  0.14833810  0.61036846  0.40166826    -0.28700
C399        C  0.13036737  0.63070271  0.38408637     0.06800
C400        C  0.11779829  0.65524071  0.40110736    -0.27400
H401        H  0.17863659  0.57313073  0.44161574     0.11500
H402        H  0.17936442  0.57477440  0.50243521     0.12700
H403        H  0.09460634  0.69867860  0.43966546     0.11800
H404        H  0.09531974  0.70030684  0.50045241     0.11000
H405        H  0.10575935  0.67541931  0.55340091     0.16400
H406        H  0.15974562  0.59571821  0.55498494     0.12300
H407        H  0.15796997  0.59131078  0.38883515     0.15200
H408        H  0.10395654  0.67103452  0.38778269     0.14900
C409        C  0.78874969  0.45433077  0.62230476    -0.17900
C410        C  0.78817989  0.42341819  0.62009506    -0.20100
C411        C  0.76564251  0.40744990  0.63602115     0.20500
C412        C  0.74352864  0.42258516  0.65462166    -0.03000
C413        C  0.74410708  0.45400624  0.65685028    -0.06100
C414        C  0.76683116  0.46977705  0.64049620     0.20800
C415        C  0.72210171  0.46961241  0.67530181     0.19000
C416        C  0.69981057  0.45331815  0.69158117    -0.17600
C417        C  0.69926379  0.42205091  0.68942033    -0.19800
C418        C  0.72098567  0.40636130  0.67087258     0.20500
C419        C  0.72079766  0.37488670  0.66823346    -0.32800
C420        C  0.74292664  0.35985303  0.64937656     0.01200
C421        C  0.76510157  0.37653651  0.63350864    -0.24200
C422        C  0.76748140  0.50076090  0.64257424    -0.28700
C423        C  0.74584401  0.51679716  0.66076787     0.06800
C424        C  0.72301398  0.50108299  0.67710361    -0.27400
H425        H  0.80638793  0.46619811  0.60969870     0.11500
H426        H  0.80535163  0.41198379  0.60584946     0.12700
H427        H  0.68273455  0.46476757  0.70600109     0.11800
H428        H  0.68180398  0.41015649  0.70220144     0.11000
H429        H  0.70377537  0.36224245  0.68086776     0.16400
H430        H  0.78243079  0.36539406  0.61916620     0.12300
H431        H  0.78516916  0.51248895  0.62985585     0.15200
H432        H  0.70632622  0.51321683  0.69139490     0.14900
C433        C  0.71624287  0.46536086  0.25710425    -0.17900
C434        C  0.71773388  0.43426616  0.25452742    -0.20100
C435        C  0.73235342  0.41730175  0.27880840     0.20500
C436        C  0.74526468  0.43187024  0.30619762    -0.03000
C437        C  0.74364744  0.46322696  0.30885655    -0.06100
C438        C  0.72923661  0.48010790  0.28406365     0.20800
C439        C  0.75699550  0.47769651  0.33599018     0.19000
C440        C  0.77151509  0.46079469  0.36036747    -0.17600
C441        C  0.77315988  0.42979780  0.35772395    -0.19800
C442        C  0.76031654  0.41518186  0.33061200     0.20500
C443        C  0.76290463  0.38422882  0.32716036    -0.32800
C444        C  0.75065613  0.36955528  0.29963351     0.01200
C445        C  0.73491435  0.38614734  0.27582492    -0.24200
C446        C  0.72868720  0.51140200  0.28629420    -0.28700
C447        C  0.74245589  0.52596928  0.31297182     0.06800
C448        C  0.75619375  0.50883713  0.33789857    -0.27400
H449        H  0.70511744  0.47791558  0.23780509     0.11500
H450        H  0.70773470  0.42350672  0.23332053     0.12700
H451        H  0.78191469  0.47159559  0.38136609     0.11800
H452        H  0.78475617  0.41728706  0.37666751     0.11000
H453        H  0.77493298  0.37157813  0.34568937     0.16400
H454        H  0.72554778  0.37496951  0.25449471     0.12300
H455        H  0.71836086  0.52440887  0.26680883     0.15200
H456        H  0.76709807  0.51980697  0.35847218     0.14900
C457        C  0.68566849  0.27374109  0.48097260    -0.17900
C458        C  0.68728702  0.27550872  0.44622893    -0.20100
C459        C  0.70856681  0.25874133  0.42832075     0.20500
C460        C  0.72744746  0.23892679  0.44561776    -0.03000
C461        C  0.72588180  0.23721871  0.48073669    -0.06100
C462        C  0.70537552  0.25526027  0.49858530     0.20800
C463        C  0.74603319  0.21876129  0.49804625     0.19000
C464        C  0.76651402  0.20107966  0.48013866    -0.17600
C465        C  0.76798952  0.20268408  0.44546973    -0.19800
C466        C  0.74902153  0.22202555  0.42803101     0.20500
C467        C  0.75240976  0.22592084  0.39359899    -0.32800
C468        C  0.73497807  0.24696906  0.37634907     0.01200
C469        C  0.71239251  0.26259903  0.39377972    -0.24200
C470        C  0.70632383  0.25601362  0.53361259    -0.28700
C471        C  0.72797947  0.23942161  0.55090734     0.06800
C472        C  0.74673968  0.21978542  0.53290524    -0.27400
H473        H  0.66965416  0.28764703  0.49415302     0.11500
H474        H  0.67244858  0.29070677  0.43343650     0.12700
H475        H  0.78209914  0.18669801  0.49302611     0.11800
H476        H  0.78462910  0.18947915  0.43237052     0.11000
H477        H  0.76993722  0.21381991  0.38058382     0.16400
H478        H  0.69894844  0.27899212  0.38087541     0.12300
H479        H  0.69185824  0.27128373  0.54716053     0.15200
H480        H  0.76343719  0.20679754  0.54592106     0.14900
C481        C  0.90986660  0.31248245  0.60121402    -0.17900
C482        C  0.94093115  0.31209897  0.59882756    -0.20100
C483        C  0.95743515  0.28797665  0.61135253     0.20500
C484        C  0.94247055  0.26384584  0.62603851    -0.03000
C485        C  0.91115899  0.26421787  0.62840400    -0.06100
C486        C  0.89481419  0.28874985  0.61611055     0.20800
C487        C  0.89625827  0.24022688  0.64346802     0.19000
C488        C  0.91272421  0.21600334  0.65571839    -0.17600
C489        C  0.94375500  0.21568983  0.65349548    -0.19800
C490        C  0.95880373  0.23955881  0.63894002     0.20500
C491        C  0.98992150  0.23987078  0.63781930    -0.32800
C492        C  0.00497949  0.26412313  0.62401834     0.01200
C493        C  0.98863908  0.28786782  0.61022751    -0.24200
C494        C  0.86374419  0.28918692  0.61918414    -0.28700
C495        C  0.84881150  0.26542031  0.63432909     0.06800
C496        C  0.86517869  0.24096721  0.64628502    -0.27400
H497        H  0.89761114  0.33146353  0.59160385     0.11500
H498        H  0.95206226  0.33079672  0.58750203     0.12700
H499        H  0.90161187  0.19741045  0.66728630     0.11800
H500        H  0.95601583  0.19688076  0.66346772     0.11000
H501        H  0.00245435  0.22151971  0.64844548     0.16400
H502        H  0.00018846  0.30670354  0.59969301     0.12300
H503        H  0.85118214  0.30811077  0.60987625     0.15200
H504        H  0.85374892  0.22260535  0.65796641     0.14900
C505        C  0.06414778  0.45850045  0.60251008    -0.17900
C506        C  0.06457820  0.42745050  0.60065869    -0.20100
C507        C  0.08563249  0.41088358  0.61858670     0.20500
C508        C  0.10657539  0.42568271  0.63845196    -0.03000
C509        C  0.10614282  0.45709513  0.64031742    -0.06100
C510        C  0.08480463  0.47349376  0.62226019     0.20800
C511        C  0.12692456  0.47205651  0.66033501     0.19000
C512        C  0.14792789  0.45537153  0.67826018    -0.17600
C513        C  0.14836063  0.42421154  0.67640927    -0.19800
C514        C  0.12775146  0.40911072  0.65664872     0.20500
C515        C  0.12759660  0.37778690  0.65515204    -0.32800
C516        C  0.10637002  0.36295960  0.63584914     0.01200
C517        C  0.08575097  0.37975557  0.61735583    -0.24200
C518        C  0.08443452  0.50460509  0.62424765    -0.28700
C519        C  0.10512374  0.51980814  0.64397002     0.06800
C520        C  0.12628609  0.50337124  0.66205907    -0.27400
H521        H  0.04760786  0.47080195  0.58851247     0.11500
H522        H  0.04833317  0.41637664  0.58532500     0.12700
H523        H  0.16403514  0.46643347  0.69378012     0.11800
H524        H  0.16475159  0.41190702  0.69058243     0.11000
H525        H  0.14350966  0.36499671  0.66949712     0.16400
H526        H  0.06932966  0.36856365  0.60233540     0.12300
H527        H  0.06788815  0.51702367  0.61035477     0.15200
H528        H  0.14213346  0.51490728  0.67749865     0.14900
C529        C  0.95552452  0.29980877  0.23142517    -0.17900
C530        C  0.92441513  0.30087007  0.23130641    -0.20100
C531        C  0.90818714  0.29377977  0.26004109     0.20500
C532        C  0.92345955  0.28592945  0.28931485    -0.03000
C533        C  0.95479002  0.28478309  0.28940996    -0.06100
C534        C  0.97087862  0.29157723  0.26025507     0.20800
C535        C  0.96997901  0.27632387  0.31852486     0.19000
C536        C  0.95381164  0.26983433  0.34744294    -0.17600
C537        C  0.92276100  0.27103022  0.34736951    -0.19800
C538        C  0.90743063  0.27869927  0.31836406     0.20500
C539        C  0.87634181  0.27874517  0.31778360    -0.32800
C540        C  0.86100133  0.28597566  0.28860742     0.01200
C541        C  0.87698490  0.29389389  0.25992367    -0.24200
C542        C  0.00199688  0.28950935  0.26032178    -0.28700
C543        C  0.01711835  0.28030346  0.28899652     0.06800
C544        C  0.00103971  0.27402453  0.31806784    -0.27400
H545        H  0.96757548  0.30511627  0.20885860     0.11500
H546        H  0.91303992  0.30697165  0.20865159     0.12700
H547        H  0.96518146  0.26348954  0.37002670     0.11800
H548        H  0.91071624  0.26558659  0.36989309     0.11000
H549        H  0.86405908  0.27281148  0.34001115     0.16400
H550        H  0.86517363  0.29948686  0.23736385     0.12300
H551        H  0.01440549  0.29438836  0.23785043     0.15200
H552        H  0.01270774  0.26715321  0.34029466     0.14900
C553        C  0.11249962  0.42117030  0.35206386    -0.17900
C554        C  0.11141794  0.45221039  0.35215414    -0.20100
C555        C  0.12025318  0.46819094  0.32401787     0.20500
C556        C  0.13172611  0.45293266  0.29600654    -0.03000
C557        C  0.13309690  0.42146697  0.29603267    -0.06100
C558        C  0.12269488  0.40561744  0.32390466     0.20800
C559        C  0.14361705  0.40587750  0.26773736     0.19000
C560        C  0.15355692  0.42209352  0.24008461    -0.17600
C561        C  0.15198664  0.45334236  0.23996544    -0.19800
C562        C  0.14055702  0.46902559  0.26758111     0.20500
C563        C  0.13651177  0.50026886  0.26689294    -0.32800
C564        C  0.12337282  0.51518759  0.29422560     0.01200
C565        C  0.11639762  0.49905011  0.32295791    -0.24200
C566        C  0.12145016  0.37451453  0.32275368    -0.28700
C567        C  0.13072501  0.35875263  0.29428337     0.06800
C568        C  0.14274436  0.37447309  0.26720019    -0.27400
H569        H  0.10467865  0.40931061  0.37372485     0.11500
H570        H  0.10275648  0.46371410  0.37392950     0.12700
H571        H  0.16183526  0.41057691  0.21815980     0.11800
H572        H  0.15905951  0.46519618  0.21797658     0.11000
H573        H  0.14205798  0.51262932  0.24469334     0.16400
H574        H  0.10675014  0.51048774  0.34429496     0.12300
H575        H  0.11235178  0.36253601  0.34374316     0.15200
H576        H  0.14976669  0.36242609  0.24508803     0.14900
C577        C  0.11292039  0.19021213  0.48105551    -0.17900
C578        C  0.11320859  0.19047166  0.44625724    -0.20100
C579        C  0.12919600  0.21217805  0.42882607     0.20500
C580        C  0.14675260  0.23249703  0.44667997    -0.03000
C581        C  0.14640368  0.23229235  0.48186372    -0.06100
C582        C  0.12852156  0.21175946  0.49906616     0.20800
C583        C  0.16214153  0.25408885  0.49970792     0.19000
C584        C  0.17969504  0.27453159  0.48232164    -0.17600
C585        C  0.18008464  0.27469347  0.44754583    -0.19800
C586        C  0.16297746  0.25437887  0.42948047     0.20500
C587        C  0.16031516  0.25682953  0.39476498    -0.32800
C588        C  0.14104544  0.23817611  0.37700435     0.01200
C589        C  0.12643083  0.21517294  0.39415259    -0.24200
C590        C  0.12452795  0.21474303  0.53360079    -0.28700
C591        C  0.13772657  0.23837715  0.55101327     0.06800
C592        C  0.15805435  0.25670076  0.53426489    -0.27400
H593        H  0.09937604  0.17404159  0.49384100     0.11500
H594        H  0.09990870  0.17440364  0.43299065     0.12700
H595        H  0.19210317  0.29127528  0.49559090     0.11800
H596        H  0.19285439  0.29151756  0.43478879     0.11000
H597        H  0.17150670  0.27472659  0.38195104     0.16400
H598        H  0.11153203  0.20065311  0.38078280     0.12300
H599        H  0.10910434  0.20028883  0.54635724     0.15200
H600        H  0.16849354  0.27480673  0.54748417     0.14900
C601        C  0.79857663  0.23986899  0.84695828    -0.17900
C602        C  0.78469696  0.25270876  0.81940572    -0.20100
C603        C  0.77507278  0.23486408  0.79297666     0.20500
C604        C  0.77863343  0.20368721  0.79478591    -0.03000
C605        C  0.79289581  0.19072491  0.82251174    -0.06100
C606        C  0.80319965  0.20895865  0.84851863     0.20800
C607        C  0.79736187  0.15961239  0.82387125     0.19000
C608        C  0.78664510  0.14169633  0.79803606    -0.17600
C609        C  0.77254965  0.15453599  0.77056982    -0.19800
C610        C  0.76891525  0.18554736  0.76837677     0.20500
C611        C  0.75719316  0.19882002  0.73958155    -0.32800
C612        C  0.75552624  0.23000770  0.73669103     0.01200
C613        C  0.76337888  0.24776751  0.76409247    -0.24200
C614        C  0.81804203  0.19601046  0.87555143    -0.28700
C615        C  0.82296140  0.16503732  0.87693512     0.06800
C616        C  0.81248944  0.14699440  0.85096961    -0.27400
H617        H  0.80613704  0.25418018  0.86680841     0.11500
H618        H  0.78202492  0.27668327  0.81847642     0.12700
H619        H  0.78954070  0.11774191  0.79883674     0.11800
H620        H  0.76505271  0.14021436  0.75068118     0.11000
H621        H  0.75130841  0.18495188  0.71860379     0.16400
H622        H  0.76212993  0.27180265  0.76218180     0.12300
H623        H  0.82564949  0.21006283  0.89562490     0.15200
H624        H  0.81567572  0.12307371  0.85211191     0.14900
C625        C  0.76967317  0.24976301  0.10741428    -0.17900
C626        C  0.77967297  0.23623757  0.07786141    -0.20100
C627        C  0.79137752  0.20711147  0.07801594     0.20500
C628        C  0.79199268  0.19112013  0.10810533    -0.03000
C629        C  0.78173329  0.20469928  0.13788532    -0.06100
C630        C  0.77099371  0.23434424  0.13770480     0.20800
C631        C  0.78323004  0.18888544  0.16803552     0.19000
C632        C  0.79396580  0.15945008  0.16804499    -0.17600
C633        C  0.80406996  0.14603657  0.13864490    -0.19800
C634        C  0.80371414  0.16185027  0.10868880     0.20500
C635        C  0.81570680  0.14914768  0.07959681    -0.32800
C636        C  0.81628490  0.16526990  0.04977686     0.01200
C637        C  0.80329533  0.19397604  0.04895192    -0.24200
C638        C  0.76285584  0.24831670  0.16794096    -0.28700
C639        C  0.76554952  0.23298664  0.19832711     0.06800
C640        C  0.77505523  0.20305436  0.19787512    -0.27400
H641        H  0.76140812  0.27246348  0.10666713     0.11500
H642        H  0.77884397  0.24883505  0.05496752     0.12700
H643        H  0.79512032  0.14695258  0.19097253     0.11800
H644        H  0.81276099  0.12348504  0.13947817     0.11000
H645        H  0.82509815  0.12685097  0.08032184     0.16400
H646        H  0.80321839  0.20641867  0.02592653     0.12300
H647        H  0.75582746  0.27144506  0.16797719     0.15200
H648        H  0.77732145  0.19105625  0.22104635     0.14900
C649        C  0.79896924  0.72624585  0.77567592    -0.17900
C650        C  0.81254515  0.73825988  0.80382692    -0.20100
C651        C  0.80966359  0.72437237  0.83483389     0.20500
C652        C  0.79220188  0.69853385  0.83757793    -0.03000
C653        C  0.77846809  0.68637908  0.80911790    -0.06100
C654        C  0.78226659  0.70009238  0.77796641     0.20800
C655        C  0.76190390  0.65994414  0.81162720     0.19000
C656        C  0.75802436  0.64671040  0.84288519    -0.17600
C657        C  0.77140787  0.65888816  0.87108765    -0.19800
C658        C  0.78903727  0.68439794  0.86859523     0.20500
C659        C  0.80383474  0.69580714  0.89643313    -0.32800
C660        C  0.82167470  0.72130370  0.89389931     0.01200
C661        C  0.82417173  0.73567101  0.86301348    -0.24200
C662        C  0.77058947  0.68664728  0.74940467    -0.28700
C663        C  0.75588574  0.65916207  0.75128311     0.06800
C664        C  0.75078113  0.64641891  0.78268692    -0.27400
H665        H  0.80206404  0.73709209  0.75194762     0.11500
H666        H  0.82568764  0.75819240  0.80123047     0.12700
H667        H  0.74520187  0.62661860  0.84539623     0.11800
H668        H  0.76844117  0.64792787  0.89483192     0.11000
H669        H  0.80130308  0.68485494  0.92024445     0.16400
H670        H  0.83752234  0.75551259  0.86087733     0.12300
H671        H  0.77482488  0.69659471  0.72537507     0.15200
H672        H  0.73958954  0.62527531  0.78442110     0.14900
C673        C  0.77011786  0.72643980  0.17504947    -0.17900
C674        C  0.78170357  0.73962454  0.14623343    -0.20100
C675        C  0.79699094  0.72244103  0.12227293     0.20500
C676        C  0.80001968  0.69148875  0.12715377    -0.03000
C677        C  0.78857800  0.67818742  0.15644500    -0.06100
C678        C  0.77371807  0.69576557  0.18066960     0.20800
C679        C  0.79269445  0.64743223  0.16182300     0.19000
C680        C  0.80727502  0.63007960  0.13749797    -0.17600
C681        C  0.81813688  0.64312760  0.10835480    -0.19800
C682        C  0.81499228  0.67386739  0.10309399     0.20500
C683        C  0.82699420  0.68730159  0.07448793    -0.32800
C684        C  0.82499521  0.71831715  0.06984211     0.01200
C685        C  0.80964198  0.73569344  0.09380504    -0.24200
C686        C  0.76359362  0.68252796  0.21043218    -0.28700
C687        C  0.76871088  0.65202166  0.21655066     0.06800
C688        C  0.78292538  0.63465909  0.19176984    -0.27400
H689        H  0.75878350  0.74036085  0.19323801     0.11500
H690        H  0.77906581  0.76335939  0.14286051     0.12700
H691        H  0.81055130  0.60640606  0.14115388     0.11800
H692        H  0.82947841  0.62920575  0.09015793     0.11000
H693        H  0.83841038  0.67364066  0.05609291     0.16400
H694        H  0.80739299  0.75948684  0.09020676     0.12300
H695        H  0.75301582  0.69620579  0.22941731     0.15200
H696        H  0.78706094  0.61119779  0.19614495     0.14900
C697        C  0.07159084  0.14624501  0.79276023    -0.17900
C698        C  0.08373875  0.15948686  0.76434263    -0.20100
C699        C  0.08728895  0.19045887  0.76272103     0.20500
C700        C  0.07945034  0.20814262  0.79051316    -0.03000
C701        C  0.06748125  0.19470960  0.81938101    -0.06100
C702        C  0.06301363  0.16366953  0.82029545     0.20800
C703        C  0.05919910  0.21247781  0.84694033     0.19000
C704        C  0.06361367  0.24334159  0.84571234    -0.17600
C705        C  0.07497639  0.25667498  0.81698381    -0.19800
C706        C  0.08248840  0.23935019  0.78902917     0.20500
C707        C  0.09168399  0.25277983  0.75919974    -0.32800
C708        C  0.09828753  0.23538771  0.73089441     0.01200
C709        C  0.09711607  0.20416145  0.73330204    -0.24200
C710        C  0.04958738  0.15071487  0.84843843    -0.28700
C711        C  0.04067894  0.16839915  0.87581853     0.06800
C712        C  0.04611221  0.19920504  0.87496529    -0.27400
H713        H  0.06845326  0.12239040  0.79298457     0.11500
H714        H  0.08967167  0.14552808  0.74327363     0.12700
H715        H  0.05760271  0.25731252  0.86674936     0.11800
H716        H  0.07736511  0.28062131  0.81641983     0.11000
H717        H  0.09249901  0.27682711  0.75759184     0.16400
H718        H  0.10188171  0.19058659  0.71156599     0.12300
H719        H  0.04606618  0.12690706  0.84902376     0.15200
H720        H  0.03976598  0.21300573  0.89603794     0.14900
C721        C  0.07514496  0.23563596  0.08172155    -0.17900
C722        C  0.08905328  0.24706619  0.10999194    -0.20100
C723        C  0.09321203  0.22926669  0.13822303     0.20500
C724        C  0.08393223  0.19937004  0.13756945    -0.03000
C725        C  0.06973613  0.18782626  0.10898795    -0.06100
C726        C  0.06505453  0.20616884  0.08109449     0.20800
C727        C  0.05981251  0.15812361  0.10855456     0.19000
C728        C  0.06495063  0.14002969  0.13637146    -0.17600
C729        C  0.07887815  0.15148187  0.16467891    -0.19800
C730        C  0.08801122  0.18127679  0.16580094     0.20500
C731        C  0.09989137  0.19363226  0.19506877    -0.32800
C732        C  0.10768163  0.22392887  0.19656033     0.01200
C733        C  0.10524537  0.24122689  0.16752066    -0.24200
C734        C  0.05032333  0.19481234  0.05310621    -0.28700
C735        C  0.04001268  0.16529574  0.05246481     0.06800
C736        C  0.04493868  0.14708643  0.08039005    -0.27400
H737        H  0.07193603  0.24999702  0.06047015     0.11500
H738        H  0.09610275  0.27004989  0.10996734     0.12700
H739        H  0.05784121  0.11707401  0.13642115     0.11800
H740        H  0.08202432  0.13713258  0.18595921     0.11000
H741        H  0.10159079  0.18006748  0.21718505     0.16400
H742        H  0.11102125  0.26457979  0.16826970     0.12300
H743        H  0.04701870  0.20897121  0.03168926     0.15200
H744        H  0.03754589  0.12421355  0.08004732     0.14900
C745        C  0.08863759  0.66248608  0.85620266    -0.17900
C746        C  0.10063529  0.65033747  0.82688681    -0.20100
C747        C  0.09528893  0.66393658  0.79612896     0.20500
C748        C  0.07846938  0.69066030  0.79515143    -0.03000
C749        C  0.06629012  0.70293394  0.82480935    -0.06100
C750        C  0.07104281  0.68850115  0.85537564     0.20800
C751        C  0.04884062  0.72925957  0.82375100     0.19000
C752        C  0.04427165  0.74335272  0.79311678    -0.17600
C753        C  0.05617043  0.73113223  0.76377075    -0.19800
C754        C  0.07297557  0.70458691  0.76444882     0.20500
C755        C  0.08321215  0.69107786  0.73485121    -0.32800
C756        C  0.09853223  0.66350590  0.73536583     0.01200
C757        C  0.10528103  0.65059597  0.76628013    -0.24200
C758        C  0.05791582  0.70012551  0.88452187    -0.28700
C759        C  0.04021153  0.72621836  0.88376710     0.06800
C760        C  0.03605448  0.74081568  0.85323108    -0.27400
H761        H  0.09274821  0.65124742  0.87950063     0.11500
H762        H  0.11361962  0.62992129  0.82821667     0.12700
H763        H  0.03108307  0.76364268  0.79175866     0.11800
H764        H  0.05177438  0.74218531  0.74043981     0.11000
H765        H  0.07773945  0.70122309  0.71127638     0.16400
H766        H  0.11692600  0.62935809  0.76705374     0.12300
H767        H  0.06164346  0.68888080  0.90791580     0.15200
H768        H  0.02272643  0.76104848  0.85237258     0.14900
C769        C  0.08119010  0.72214622  0.17169655    -0.17900
C770        C  0.06949241  0.73698919  0.14405417    -0.20100
C771        C  0.05888505  0.72090048  0.11669338     0.20500
C772        C  0.06051259  0.68950524  0.11708119    -0.03000
C773        C  0.07219919  0.67451772  0.14504533    -0.06100
C774        C  0.08244676  0.69091200  0.17259056     0.20800
C775        C  0.07304429  0.64312830  0.14569039     0.19000
C776        C  0.06294098  0.62700548  0.11815230    -0.17600
C777        C  0.05173494  0.64182916  0.09034553    -0.19800
C778        C  0.05021762  0.67303052  0.08964949     0.20500
C779        C  0.03859824  0.68800123  0.06199785    -0.32800
C780        C  0.03669900  0.71927472  0.06138787     0.01200
C781        C  0.04677220  0.73559054  0.08895206    -0.24200
C782        C  0.09280064  0.67576870  0.20090070    -0.28700
C783        C  0.09241046  0.64447656  0.20223436     0.06800
C784        C  0.08304770  0.62836585  0.17424061    -0.27400
H785        H  0.08894723  0.73512915  0.19257703     0.11500
H786        H  0.06861448  0.76109410  0.14415119     0.12700
H787        H  0.06347087  0.60290690  0.11823336     0.11800
H788        H  0.04398058  0.62883952  0.06945670     0.11000
H789        H  0.03098462  0.67524052  0.04085126     0.16400
H790        H  0.04571565  0.75969860  0.08853416     0.12300
H791        H  0.09956291  0.68834124  0.22254736     0.15200
H792        H  0.08256313  0.60427164  0.17512302     0.14900
C793        C  0.14566447  0.81083802  0.80206690    -0.17900
C794        C  0.16012663  0.79990981  0.77357766    -0.20100
C795        C  0.19108959  0.79551836  0.77320115     0.20500
C796        C  0.20764530  0.80204847  0.80192002    -0.03000
C797        C  0.19301300  0.81303234  0.83074400    -0.06100
C798        C  0.16188791  0.81763200  0.83073083     0.20800
C799        C  0.20956595  0.81971429  0.85941459     0.19000
C800        C  0.24053143  0.81517653  0.85906817    -0.17600
C801        C  0.25505734  0.80461466  0.83042576    -0.19800
C802        C  0.23884821  0.79811170  0.80166342     0.20500
C803        C  0.25332943  0.78840391  0.77245505    -0.32800
C804        C  0.23697225  0.78219644  0.74359367     0.01200
C805        C  0.20581857  0.78539061  0.74437545    -0.24200
C806        C  0.14757423  0.82916938  0.85923950    -0.28700
C807        C  0.16393058  0.83618629  0.88786170     0.06800
C808        C  0.19491851  0.83108475  0.88777701    -0.27400
H809        H  0.12175942  0.81415673  0.80160206     0.11500
H810        H  0.14708763  0.79509438  0.75171762     0.12700
H811        H  0.25360011  0.82011626  0.88088602     0.11800
H812        H  0.27900158  0.80169774  0.83071363     0.11000
H813        H  0.27737945  0.78640254  0.77192197     0.16400
H814        H  0.19312400  0.78129967  0.72205737     0.12300
H815        H  0.12367850  0.83270457  0.85913770     0.15200
H816        H  0.20771559  0.83617171  0.90976406     0.14900
C817        C  0.28874648  0.70310777  0.49277211    -0.17900
C818        C  0.28843994  0.70341836  0.45796037    -0.20100
C819        C  0.26675840  0.71996260  0.44084344     0.20500
C820        C  0.24421313  0.73499815  0.45905126    -0.03000
C821        C  0.24450432  0.73465338  0.49416424    -0.06100
C822        C  0.26740384  0.71936213  0.51113216     0.20800
C823        C  0.22303397  0.75130199  0.51220430     0.19000
C824        C  0.20051725  0.76667379  0.49521234    -0.17600
C825        C  0.20025148  0.76705231  0.46052563    -0.19800
C826        C  0.22246000  0.75197078  0.44226507     0.20500
C827        C  0.22430891  0.75512749  0.40768897    -0.32800
C828        C  0.24778506  0.74182877  0.38951001     0.01200
C829        C  0.26826725  0.72326868  0.40608551    -0.24200
C830        C  0.26981447  0.72249980  0.54583674    -0.28700
C831        C  0.24997675  0.74129621  0.56342405     0.06800
C832        C  0.22574941  0.75421094  0.54667775    -0.27400
H833        H  0.30638695  0.69107236  0.50531630     0.11500
H834        H  0.30580917  0.69157771  0.44444213     0.12700
H835        H  0.18377356  0.77943012  0.50874769     0.11800
H836        H  0.18330030  0.78002788  0.44800266     0.11000
H837        H  0.20846716  0.76948087  0.39516959     0.16400
H838        H  0.28657685  0.71317597  0.39233676     0.12300
H839        H  0.28859095  0.71254372  0.55858926     0.15200
H840        H  0.21025558  0.76854163  0.56014938     0.14900
C841        C  0.24493251  0.79360689  0.12073565    -0.17900
C842        C  0.23164517  0.80512668  0.09211052    -0.20100
C843        C  0.20178617  0.81463231  0.09256585     0.20500
C844        C  0.18500636  0.81206990  0.12212285    -0.03000
C845        C  0.19845016  0.80023358  0.15112612    -0.06100
C846        C  0.22862679  0.79120946  0.15041952     0.20800
C847        C  0.18192131  0.79798874  0.18091513     0.19000
C848        C  0.15193146  0.80728197  0.18121041    -0.17600
C849        C  0.13859961  0.81889557  0.15248089    -0.19800
C850        C  0.15497677  0.82163603  0.12279627     0.20500
C851        C  0.14200281  0.83392116  0.09390846    -0.32800
C852        C  0.15873301  0.83680314  0.06431130     0.01200
C853        C  0.18858248  0.82682931  0.06401308    -0.24200
C854        C  0.24229536  0.78073111  0.17953704    -0.28700
C855        C  0.22637012  0.77903424  0.20966849     0.06800
C856        C  0.19592259  0.78727976  0.20996430    -0.27400
H857        H  0.26811516  0.78679983  0.11971587     0.11500
H858        H  0.24486347  0.80685846  0.06962686     0.12700
H859        H  0.13879408  0.80579466  0.20378356     0.11800
H860        H  0.11550878  0.82597948  0.15357838     0.11000
H861        H  0.11893894  0.84115563  0.09444336     0.16400
H862        H  0.20169391  0.82862467  0.04143803     0.12300
H863        H  0.26573649  0.77482925  0.17899017     0.15200
H864        H  0.18349268  0.78666554  0.23309501     0.14900
C865        C  0.22078045  0.93232532  0.67654748    -0.17900
C866        C  0.21903087  0.96340779  0.67556911    -0.20100
C867        C  0.23611660  0.97936163  0.65255759     0.20500
C868        C  0.25469167  0.96378431  0.62986096    -0.03000
C869        C  0.25662376  0.93248893  0.63100551    -0.06100
C870        C  0.23977670  0.91674045  0.65465314     0.20800
C871        C  0.27605145  0.91704339  0.60908891     0.19000
C872        C  0.29258354  0.93291093  0.58556451    -0.17600
C873        C  0.29055648  0.96391334  0.58431690    -0.19800
C874        C  0.27204511  0.97950991  0.60665077     0.20500
C875        C  0.27140592  0.01060018  0.60685777    -0.32800
C876        C  0.25388447  0.02627552  0.63012379     0.01200
C877        C  0.23574884  0.01059531  0.65246449    -0.24200
C878        C  0.24284478  0.88576502  0.65659261    -0.28700
C879        C  0.26295698  0.87042481  0.63564869     0.06800
C880        C  0.27917248  0.88609529  0.61164804    -0.27400
H881        H  0.20768340  0.92050583  0.69480767     0.11500
H882        H  0.20462732  0.97499283  0.69313730     0.12700
H883        H  0.30745474  0.92137144  0.56845973     0.11800
H884        H  0.30391432  0.97574181  0.56629929     0.11000
H885        H  0.28537881  0.02263071  0.58957833     0.16400
H886        H  0.22229437  0.02265161  0.67058871     0.12300
H887        H  0.23029051  0.87370987  0.67516144     0.15200
H888        H  0.29456432  0.87426994  0.59534373     0.14900
C889        C  0.14409480  0.10126933  0.80551688    -0.17900
C890        C  0.15872589  0.11433036  0.77847481    -0.20100
C891        C  0.18938745  0.10976234  0.77342572     0.20500
C892        C  0.20555298  0.09249405  0.79650336    -0.03000
C893        C  0.19077249  0.07945364  0.82398895    -0.06100
C894        C  0.15979418  0.08348845  0.82820555     0.20800
C895        C  0.20689145  0.06196382  0.84687342     0.19000
C896        C  0.23765432  0.05781529  0.84217797    -0.17600
C897        C  0.25217505  0.07032443  0.81474463    -0.19800
C898        C  0.23630853  0.08750421  0.79160997     0.20500
C899        C  0.25038797  0.09872994  0.76301379    -0.32800
C900        C  0.23418474  0.11481666  0.73897616     0.01200
C901        C  0.20384050  0.12103686  0.74499767    -0.24200
C902        C  0.14505152  0.06954537  0.85486612    -0.28700
C903        C  0.16092505  0.05202662  0.87784400     0.06800
C904        C  0.19196094  0.04871892  0.87383856    -0.27400
H905        H  0.12036616  0.10479271  0.80849822     0.11500
H906        H  0.14592451  0.12755256  0.76112760     0.12700
H907        H  0.25042909  0.04450738  0.85946820     0.11800
H908        H  0.27581794  0.06624292  0.81141260     0.11000
H909        H  0.27372885  0.09363459  0.75866931     0.16400
H910        H  0.19105836  0.13310735  0.72661199     0.12300
H911        H  0.12125747  0.07273445  0.85805630     0.15200
H912        H  0.20444638  0.03553364  0.89152229     0.14900
C913        C  0.28566867  0.96390949  0.36288920    -0.17900
C914        C  0.28779011  0.93281304  0.36363532    -0.20100
C915        C  0.26958922  0.91548718  0.34323115     0.20500
C916        C  0.24810824  0.92959539  0.32303399    -0.03000
C917        C  0.24594260  0.96084614  0.32232130    -0.06100
C918        C  0.26526018  0.97811411  0.34179084     0.20800
C919        C  0.22530765  0.97479087  0.30099046     0.19000
C920        C  0.20626188  0.95752918  0.28160154    -0.17600
C921        C  0.20840754  0.92658239  0.28230501    -0.19800
C922        C  0.22965427  0.91254142  0.30235279     0.20500
C923        C  0.23367929  0.88181539  0.30080662    -0.32800
C924        C  0.25614763  0.86781483  0.31922795     0.01200
C925        C  0.27336010  0.88447156  0.34138655    -0.24200
C926        C  0.26459221  0.00920573  0.33876324    -0.28700
C927        C  0.24495223  0.02300773  0.31639840     0.06800
C928        C  0.22485488  0.00574244  0.29834361    -0.27400
H929        H  0.30049724  0.97684637  0.37817213     0.11500
H930        H  0.30423296  0.92235919  0.37946036     0.12700
H931        H  0.19023744  0.96797376  0.26525388     0.11800
H932        H  0.19401795  0.91365066  0.26645491     0.11000
H933        H  0.22001527  0.86889039  0.28412131     0.16400
H934        H  0.29053678  0.87356787  0.35583599     0.12300
H935        H  0.28008241  0.02252231  0.35278495     0.15200
H936        H  0.20960562  0.01631839  0.28116781     0.14900
C937        C  0.27250908  0.19339840  0.48284607    -0.17900
C938        C  0.27102083  0.19297325  0.44805867    -0.20100
C939        C  0.24858275  0.17714275  0.43180420     0.20500
C940        C  0.22619762  0.16340228  0.45092365    -0.03000
C941        C  0.22774783  0.16375946  0.48611374    -0.06100
C942        C  0.25161791  0.17793188  0.50211687     0.20800
C943        C  0.20664281  0.14807590  0.50510318     0.19000
C944        C  0.18289282  0.13418649  0.48894200    -0.17600
C945        C  0.18132554  0.13389262  0.45419808    -0.19800
C946        C  0.20350232  0.14743873  0.43493755     0.20500
C947        C  0.20462849  0.14337837  0.40025588    -0.32800
C948        C  0.22841567  0.15468560  0.38128530     0.01200
C949        C  0.24938818  0.17294034  0.39707435    -0.24200
C950        C  0.25542321  0.17451844  0.53669930    -0.28700
C951        C  0.23604103  0.15649243  0.55535560     0.06800
C952        C  0.21084693  0.14466605  0.53953427    -0.27400
H953        H  0.29079683  0.20472472  0.49461632     0.11500
H954        H  0.28822173  0.20398434  0.43384531     0.12700
H955        H  0.16621614  0.12240797  0.50311084     0.11800
H956        H  0.16347410  0.12189651  0.44238819     0.11000
H957        H  0.18821223  0.12949132  0.38841026     0.16400
H958        H  0.26775625  0.18184854  0.38278043     0.12300
H959        H  0.27483582  0.18380872  0.54849485     0.15200
H960        H  0.19560468  0.13097973  0.55358193     0.14900
C961        C  0.12569005  0.07258999  0.13935626    -0.17900
C962        C  0.13759277  0.08499678  0.16834597    -0.20100
C963        C  0.16769804  0.09307817  0.16964813     0.20500
C964        C  0.18570948  0.08927937  0.14106736    -0.03000
C965        C  0.17364357  0.07697986  0.11175061    -0.06100
C966        C  0.14358394  0.06817351  0.11098875     0.20800
C967        C  0.19183951  0.07311750  0.08336032     0.19000
C968        C  0.22169777  0.08180839  0.08429085    -0.17600
C969        C  0.23372348  0.09352587  0.11338318    -0.19800
C970        C  0.21603635  0.09703397  0.14198890     0.20500
C971        C  0.22847696  0.10712167  0.17178517    -0.32800
C972        C  0.21107917  0.10994523  0.20080184     0.01200
C973        C  0.18042228  0.10376576  0.19928581    -0.24200
C974        C  0.13208575  0.05515704  0.08190617    -0.28700
C975        C  0.15022676  0.05131582  0.05350256     0.06800
C976        C  0.18000263  0.06051665  0.05452775    -0.27400
H977        H  0.10249458  0.06625189  0.13921859     0.11500
H978        H  0.12335093  0.08781720  0.18994149     0.12700
H979        H  0.23590109  0.07913515  0.06262077     0.11800
H980        H  0.25700610  0.09951242  0.11362705     0.11000
H981        H  0.25208248  0.11176372  0.17272290     0.16400
H982        H  0.16692198  0.10550870  0.22160619     0.12300
H983        H  0.10900112  0.04844303  0.08121368     0.15200
H984        H  0.19411656  0.05779261  0.03277276     0.14900
C985        C  0.42819869  0.71465361  0.68075763    -0.17900
C986        C  0.45938717  0.71327139  0.68210887    -0.20100
C987        C  0.47650490  0.73821863  0.67393598     0.20500
C988        C  0.46191869  0.76490951  0.66471393    -0.03000
C989        C  0.43058076  0.76631579  0.66340506    -0.06100
C990        C  0.41354151  0.74104275  0.67123737     0.20800
C991        C  0.41634460  0.79305832  0.65392535     0.19000
C992        C  0.43324295  0.81812524  0.64614802    -0.17600
C993        C  0.46417534  0.81671746  0.64735886    -0.19800
C994        C  0.47863998  0.79022522  0.65644214     0.20500
C995        C  0.50960717  0.78870444  0.65701720    -0.32800
C996        C  0.52449190  0.76224699  0.66566198     0.01200
C997        C  0.50786262  0.73703804  0.67441918    -0.24200
C998        C  0.38225477  0.74268864  0.66914253    -0.28700
C999        C  0.36813640  0.76936832  0.65933814     0.06800
C1000       C  0.38542345  0.79436144  0.65205764    -0.27400
H1001       H  0.41555830  0.69504761  0.68697127     0.11500
H1002       H  0.47013075  0.69259191  0.68933779     0.12700
H1003       H  0.42252000  0.83880976  0.63888862     0.11800
H1004       H  0.47680508  0.83630978  0.64100574     0.11000
H1005       H  0.52218468  0.80828052  0.65036733     0.09200
H1006       H  0.51925275  0.71656811  0.68118992     0.12300
H1007       H  0.36901271  0.72336705  0.67493795     0.15200
H1008       H  0.37477978  0.81505723  0.64464142     0.14900
C1009       C  0.63041957  0.78678456  0.83678986    -0.17900
C1010       C  0.64118159  0.80164541  0.86468347    -0.20100
C1011       C  0.67065736  0.81155894  0.86542061     0.20500
C1012       C  0.68956814  0.80632025  0.83786849    -0.03000
C1013       C  0.67870170  0.79125787  0.80970880    -0.06100
C1014       C  0.64893199  0.78159689  0.80916654     0.20800
C1015       C  0.69741700  0.78636736  0.78190666     0.19000
C1016       C  0.72693992  0.79622071  0.78272432    -0.17600
C1017       C  0.73780589  0.81092173  0.81077443    -0.19800
C1018       C  0.71926910  0.81617862  0.83842409     0.20500
C1019       C  0.72998019  0.83080062  0.86675509    -0.32800
C1020       C  0.71131607  0.83567424  0.89447742     0.01200
C1021       C  0.68161361  0.82628589  0.89341782    -0.24200
C1022       C  0.63784172  0.76798484  0.78054934    -0.28700
C1023       C  0.65590031  0.76426385  0.75220222     0.06800
C1024       C  0.68593568  0.77273670  0.75337037    -0.27400
H1025       H  0.60747096  0.77957655  0.83670006     0.11500
H1026       H  0.62642373  0.80544666  0.88567914     0.12700
H1027       H  0.74160763  0.79270993  0.76157486     0.11800
H1028       H  0.76066191  0.81826338  0.81079495     0.11000
H1029       H  0.75294213  0.83780250  0.86749455     0.16400
H1030       H  0.66714373  0.82982495  0.91474236     0.12300
H1031       H  0.61457042  0.76182558  0.77970004     0.15200
H1032       H  0.69986436  0.77041083  0.73142483     0.14900
C1033       C  0.42890723  0.72013937  0.29239541    -0.17900
C1034       C  0.46002599  0.72054421  0.29543219    -0.20100
C1035       C  0.47487510  0.74729510  0.30194150     0.20500
C1036       C  0.45805465  0.77386723  0.30532522    -0.03000
C1037       C  0.42674820  0.77349994  0.30196159    -0.06100
C1038       C  0.41197882  0.74650298  0.29558761     0.20800
C1039       C  0.41024509  0.80022703  0.30512948     0.19000
C1040       C  0.42490725  0.82696243  0.31173226    -0.17600
C1041       C  0.45575683  0.82729589  0.31525495    -0.19800
C1042       C  0.47248180  0.80091618  0.31212236     0.20500
C1043       C  0.50340429  0.80127663  0.31565861    -0.32800
C1044       C  0.52052120  0.77508852  0.31214055     0.01200
C1045       C  0.50613343  0.74807709  0.30514933    -0.24200
C1046       C  0.38063853  0.74647598  0.29276256    -0.28700
C1047       C  0.36413471  0.77322735  0.29593264     0.06800
C1048       C  0.37930402  0.79990176  0.30191481    -0.27400
H1049       H  0.41807338  0.69916268  0.28750887     0.11500
H1050       H  0.47248016  0.69988959  0.29278103     0.12700
H1051       H  0.41248103  0.84764792  0.31428174     0.11800
H1052       H  0.46655305  0.84823457  0.32042351     0.11000
H1053       H  0.51423319  0.82221651  0.32082388     0.16400
H1054       H  0.51917524  0.72777533  0.30241332     0.12300
H1055       H  0.36915299  0.72576358  0.28832177     0.15200
H1056       H  0.36691582  0.82060785  0.30466333     0.14900
C1057       C  0.69292892  0.74238741  0.47264545    -0.17900
C1058       C  0.69386023  0.73809533  0.50706436    -0.20100
C1059       C  0.66872673  0.72782184  0.52424899     0.20500
C1060       C  0.64321206  0.71965694  0.50628712    -0.03000
C1061       C  0.64236146  0.72376544  0.47156811    -0.06100
C1062       C  0.66693533  0.73623774  0.45481842     0.20800
C1063       C  0.61616016  0.71723688  0.45399785     0.19000
C1064       C  0.59149599  0.70576700  0.47095273    -0.17600
C1065       C  0.59222829  0.70197915  0.50532381    -0.19800
C1066       C  0.61771715  0.70947078  0.52327018     0.20500
C1067       C  0.61718415  0.70940524  0.55802452    -0.32800
C1068       C  0.64125526  0.72069612  0.57597588     0.01200
C1069       C  0.66764959  0.72810684  0.55910759    -0.24200
C1070       C  0.66432930  0.74390954  0.42108312    -0.28700
C1071       C  0.63771627  0.73852765  0.40390160     0.06800
C1072       C  0.61433245  0.72400060  0.42018857    -0.27400
H1073       H  0.71219316  0.75152150  0.46015791     0.11500
H1074       H  0.71376813  0.74409354  0.52042639     0.12700
H1075       H  0.57119283  0.70073290  0.45776717     0.11800
H1076       H  0.57247586  0.69422180  0.51801399     0.11000
H1077       H  0.59674727  0.70379340  0.57090460     0.16400
H1078       H  0.68629238  0.73674390  0.57293855     0.12300
H1079       H  0.68241821  0.75522158  0.40862260     0.15200
H1080       H  0.59364954  0.72016009  0.40719540     0.14900
C1081       C  0.72057756  0.79809860  0.18591505    -0.17900
C1082       C  0.73270562  0.80834835  0.15604537    -0.20100
C1083       C  0.71435764  0.81426458  0.12873635     0.20500
C1084       C  0.68349414  0.80930434  0.13138360    -0.03000
C1085       C  0.67114883  0.79946463  0.16177891    -0.06100
C1086       C  0.68981679  0.79396267  0.18921013     0.20800
C1087       C  0.64009459  0.79614049  0.16505575     0.19000
C1088       C  0.62180126  0.80131653  0.13747631    -0.17600
C1089       C  0.63411364  0.81042780  0.10716366    -0.19800
C1090       C  0.66485068  0.81505604  0.10400243     0.20500
C1091       C  0.67719817  0.82614530  0.07436428    -0.32800
C1092       C  0.70780295  0.83235782  0.07203682     0.01200
C1093       C  0.72626386  0.82582126  0.09918969    -0.24200
C1094       C  0.67730107  0.78560327  0.21979411    -0.28700
C1095       C  0.64630188  0.78369261  0.22367563     0.06800
C1096       C  0.62782979  0.78866260  0.19609575    -0.27400
H1097       H  0.73522946  0.79409393  0.20674253     0.11500
H1098       H  0.75640983  0.81216276  0.15448184     0.12700
H1099       H  0.59795429  0.79869063  0.13947734     0.11800
H1100       H  0.61943471  0.81458451  0.08636612     0.11000
H1101       H  0.66283196  0.83075805  0.05340893     0.16400
H1102       H  0.74993738  0.82994295  0.09740207     0.12300
H1103       H  0.69157985  0.78231682  0.24110406     0.15200
H1104       H  0.60389826  0.78738372  0.19902332     0.14900
C1105       C  0.45548895  0.15614224  0.68378889    -0.17900
C1106       C  0.42429114  0.15807022  0.68323187    -0.20100
C1107       C  0.40770809  0.13860686  0.66340772     0.20500
C1108       C  0.42288516  0.11687016  0.64413712    -0.03000
C1109       C  0.45435477  0.11491188  0.64471563    -0.06100
C1110       C  0.47079544  0.13471301  0.66454542     0.20800
C1111       C  0.46932792  0.09313930  0.62537856     0.19000
C1112       C  0.45286272  0.07349540  0.60576129    -0.17600
C1113       C  0.42181335  0.07542273  0.60519997    -0.19800
C1114       C  0.40664704  0.09701975  0.62423646     0.20500
C1115       C  0.37551285  0.09895045  0.62373566    -0.32800
C1116       C  0.36000421  0.12046386  0.64278295     0.01200
C1117       C  0.37630325  0.14034819  0.66257220    -0.24200
C1118       C  0.50216634  0.13272708  0.66467853    -0.28700
C1119       C  0.51722488  0.11109165  0.64529053     0.06800
C1120       C  0.50050134  0.09135210  0.62586384    -0.27400
H1121       H  0.46766118  0.17149731  0.69925803     0.11500
H1122       H  0.41313406  0.17484202  0.69829649     0.12700
H1123       H  0.46401213  0.05664020  0.59079260     0.11800
H1124       H  0.40963633  0.05998322  0.58981789     0.11000
H1125       H  0.36328146  0.08344434  0.60846873     0.16400
H1126       H  0.36460215  0.15684074  0.67752659     0.12300
H1127       H  0.51481392  0.14792234  0.67987106     0.15200
H1128       H  0.51178463  0.07455356  0.61090317     0.14900
C1129       C  0.61368445  0.91434224  0.58500234    -0.17900
C1130       C  0.61120258  0.94540236  0.58412137    -0.20100
C1131       C  0.61425230  0.96223318  0.61329254     0.20500
C1132       C  0.62020861  0.94768689  0.64357194    -0.03000
C1133       C  0.62317603  0.91650436  0.64435363    -0.06100
C1134       C  0.61950595  0.89966675  0.61500919     0.20800
C1135       C  0.62931450  0.90215914  0.67465976     0.19000
C1136       C  0.63246179  0.91888439  0.70382847    -0.17600
C1137       C  0.62915409  0.94974265  0.70313088    -0.19800
C1138       C  0.62296212  0.96427137  0.67319258     0.20500
C1139       C  0.61952960  0.99513380  0.67239103    -0.32800
C1140       C  0.61395328  0.00976535  0.64233006     0.01200
C1141       C  0.61141743  0.99332598  0.61280815    -0.24200
C1142       C  0.62096459  0.86847771  0.61650035    -0.28700
C1143       C  0.62640688  0.85424268  0.64689597     0.06800
C1144       C  0.63134997  0.87123827  0.67557197    -0.27400
H1145       H  0.61087070  0.90178508  0.56223972     0.11500
H1146       H  0.60663965  0.95624286  0.56069664     0.12700
H1147       H  0.63709910  0.90805425  0.72725903     0.11800
H1148       H  0.63139707  0.96224875  0.72601508     0.11000
H1149       H  0.62170608  0.00785629  0.69516828     0.16400
H1150       H  0.60701914  0.00468975  0.58963468     0.12300
H1151       H  0.61720567  0.85533295  0.59432277     0.15200
H1152       H  0.63548871  0.86033587  0.69910224     0.14900
C1153       C  0.73757702  0.05081948  0.79363797    -0.17900
C1154       C  0.72656094  0.06303905  0.76405072    -0.20100
C1155       C  0.69817722  0.07648158  0.76311522     0.20500
C1156       C  0.68098801  0.07794905  0.79253142    -0.03000
C1157       C  0.69203032  0.06543414  0.82234770    -0.06100
C1158       C  0.72041480  0.05165477  0.82292753     0.20800
C1159       C  0.67450044  0.06653785  0.85151217     0.19000
C1160       C  0.64636888  0.08033374  0.85080418    -0.17600
C1161       C  0.63544639  0.09261562  0.82138033    -0.19800
C1162       C  0.65247414  0.09139486  0.79206051     0.20500
C1163       C  0.64099080  0.10254328  0.76212818    -0.32800
C1164       C  0.65734437  0.10016487  0.73227362     0.01200
C1165       C  0.68626548  0.08759225  0.73317257    -0.24200
C1166       C  0.73107414  0.03913943  0.85276872    -0.28700
C1167       C  0.71363778  0.04027302  0.88200818     0.06800
C1168       C  0.68535400  0.05396079  0.88094422    -0.27400
H1169       H  0.75948100  0.04049704  0.79353217     0.11500
H1170       H  0.74016415  0.06172454  0.74178878     0.12700
H1171       H  0.63266769  0.08147204  0.87303692     0.11800
H1172       H  0.61351681  0.10282228  0.82148266     0.11000
H1173       H  0.61863715  0.11179536  0.76181154     0.16400
H1174       H  0.69898933  0.08527797  0.71034294     0.12300
H1175       H  0.75303279  0.02894649  0.85335311     0.15200
H1176       H  0.67180908  0.05523673  0.90330032     0.14900
C1177       C  0.40597777  0.17477680  0.27575364    -0.17900
C1178       C  0.43723862  0.17481625  0.27669541    -0.20100
C1179       C  0.45357261  0.14793754  0.27707270     0.20500
C1180       C  0.43805901  0.12079434  0.27587843    -0.03000
C1181       C  0.40655722  0.12075157  0.27509463    -0.06100
C1182       C  0.39033304  0.14785712  0.27532869     0.20800
C1183       C  0.39131884  0.09347666  0.27489348     0.19000
C1184       C  0.40745910  0.06660868  0.27452911    -0.17600
C1185       C  0.43850697  0.06665162  0.27513110    -0.19800
C1186       C  0.45397264  0.09357981  0.27617153     0.20500
C1187       C  0.48507427  0.09356357  0.27812470    -0.32800
C1188       C  0.50093752  0.12033093  0.28009625     0.01200
C1189       C  0.48499991  0.14757104  0.27918434    -0.24200
C1190       C  0.35888210  0.14742212  0.27617528    -0.28700
C1191       C  0.34372561  0.12014722  0.27749822     0.06800
C1192       C  0.36020641  0.09340305  0.27607180    -0.27400
H1193       H  0.39401723  0.19584018  0.27588889     0.11500
H1194       H  0.44864116  0.19592337  0.27748615     0.12700
H1195       H  0.39603816  0.04548204  0.27426710     0.11800
H1196       H  0.45042949  0.04558461  0.27526066     0.11000
H1197       H  0.49695286  0.07246521  0.27870454     0.16400
H1198       H  0.49694407  0.16835355  0.28067341     0.12300
H1199       H  0.34633061  0.16814129  0.27721450     0.15200
H1200       H  0.34874154  0.07228427  0.27665216     0.14900
C1201       C  0.57489759  0.96513077  0.37072873    -0.17900
C1202       C  0.57781448  0.93431587  0.37401155    -0.20100
C1203       C  0.60128119  0.91899027  0.35816767     0.20500
C1204       C  0.62281255  0.93490296  0.34006114    -0.03000
C1205       C  0.61980937  0.96596683  0.33665534    -0.06100
C1206       C  0.59534411  0.98102874  0.35147589     0.20800
C1207       C  0.64036567  0.98168930  0.31698375     0.19000
C1208       C  0.66462117  0.96653415  0.30241688    -0.17600
C1209       C  0.66760218  0.93569429  0.30579954    -0.19800
C1210       C  0.64638507  0.91960610  0.32382667     0.20500
C1211       C  0.64728759  0.88842495  0.32432864    -0.32800
C1212       C  0.62472414  0.87251598  0.34051479     0.01200
C1213       C  0.60256717  0.88791057  0.35854392    -0.24200
C1214       C  0.59090923  0.01140417  0.34537249    -0.28700
C1215       C  0.61019681  0.02662325  0.32401500     0.06800
C1216       C  0.63543996  0.01196688  0.31085340    -0.27400
H1217       H  0.55609397  0.97639486  0.38237696     0.11500
H1218       H  0.56120233  0.92235972  0.38808768     0.12700
H1219       H  0.68073408  0.97838801  0.28749740     0.11800
H1220       H  0.68594312  0.92431437  0.29340141     0.11000
H1221       H  0.66450419  0.87657455  0.31050290     0.16400
H1222       H  0.58522554  0.87569639  0.37119753     0.12300
H1223       H  0.57159245  0.02279316  0.35578818     0.15200
H1224       H  0.65066442  0.02387403  0.29482350     0.14900
C1225       C  0.67637203  0.12919760  0.44577610    -0.17900
C1226       C  0.67874538  0.12707548  0.48038843    -0.20100
C1227       C  0.65621687  0.13863350  0.50121653     0.20500
C1228       C  0.63207323  0.15427685  0.48697834    -0.03000
C1229       C  0.62945209  0.15606833  0.45199016    -0.06100
C1230       C  0.65127130  0.14269321  0.43133672     0.20800
C1231       C  0.60398752  0.16943322  0.43778024     0.19000
C1232       C  0.58248201  0.18279355  0.45858542    -0.17600
C1233       C  0.58528392  0.18137643  0.49315681    -0.19800
C1234       C  0.60946424  0.16634503  0.50759585     0.20500
C1235       C  0.61027091  0.16134258  0.54203669    -0.32800
C1236       C  0.63267942  0.14334431  0.55610604     0.01200
C1237       C  0.65627256  0.13309102  0.53567445    -0.24200
C1238       C  0.64658873  0.14115005  0.39685592    -0.28700
C1239       C  0.61996156  0.15205447  0.38282205     0.06800
C1240       C  0.59942103  0.16741273  0.40328701    -0.27400
H1241       H  0.69350603  0.11909895  0.43031259     0.11500
H1242       H  0.69769823  0.11535821  0.49082198     0.12700
H1243       H  0.56295501  0.19338053  0.44816667     0.11800
H1244       H  0.56779283  0.19094881  0.50861679     0.11000
H1245       H  0.59195182  0.16924850  0.55745037     0.16400
H1246       H  0.67372461  0.11929975  0.54625366     0.12300
H1247       H  0.66260382  0.12933262  0.38136182     0.15200
H1248       H  0.57894112  0.17593720  0.39278463     0.14900
C1249       C  0.62014875  0.09898706  0.11478817    -0.17900
C1250       C  0.63387407  0.08675242  0.08647293    -0.20100
C1251       C  0.66345055  0.07639917  0.08757601     0.20500
C1252       C  0.67950976  0.07895584  0.11741831    -0.03000
C1253       C  0.66568460  0.09151942  0.14601260    -0.06100
C1254       C  0.63573425  0.10123763  0.14476498     0.20800
C1255       C  0.68157372  0.09365934  0.17600965     0.19000
C1256       C  0.71125555  0.08356075  0.17702493    -0.17600
C1257       C  0.72492907  0.07117550  0.14873055    -0.19800
C1258       C  0.70923054  0.06854822  0.11885813     0.20500
C1259       C  0.72260001  0.05549058  0.09053800    -0.32800
C1260       C  0.70668856  0.05259589  0.06070719     0.01200
C1261       C  0.67712158  0.06332503  0.05947236    -0.24200
C1262       C  0.62158638  0.11202680  0.17374436    -0.28700
C1263       C  0.63696282  0.11344576  0.20402531     0.06800
C1264       C  0.66722788  0.10488276  0.20471671    -0.27400
H1265       H  0.59716399  0.10637571  0.11333205     0.11500
H1266       H  0.62120999  0.08507232  0.06376490     0.12700
H1267       H  0.72379893  0.08493962  0.19980793     0.11800
H1268       H  0.74779699  0.06337831  0.15032548     0.11000
H1269       H  0.74543874  0.04753350  0.09174156     0.16400
H1270       H  0.66467169  0.06141110  0.03662002     0.12300
H1271       H  0.59822910  0.11828411  0.17302295     0.15200
H1272       H  0.67913078  0.10533430  0.22800566     0.14900
loop_ 
_geom_bond_atom_site_label_1 
_geom_bond_atom_site_label_2 
_geom_bond_distance 
_geom_bond_site_symmetry_2 
_ccdc_geom_bond_type 
In1           O3   2.285       .  S
In1           O4   2.227       .  S
In1          O12   2.268       .  S
In1           O6   2.276       .  S
In1           O8   2.256       .  S
In1           O9   2.261       .  S
In1          O10   2.284       .  S
In1          O13   2.234       .  S
C2            O8   1.256       .  A
C2           O10   1.261       .  A
C2         C1239   1.489       .  S
O3           C11   1.270       .  A
O4           C11   1.265       .  A
C5           O12   1.258       .  A
C5            O6   1.259       .  A
C5         C1263   1.489       .  S
C7            O9   1.259       .  A
C7           O13   1.255       .  A
C7         C1215   1.470       .  S
C11        C1188   1.493       .  S
In14         O16   2.251       .  S
In14         O17   2.220       .  S
In14         O25   2.265       .  S
In14         O19   2.281       .  S
In14         O21   2.271       .  S
In14         O22   2.282       .  S
In14         O23   2.273       .  S
In14         O26   2.242       .  S
C15          O21   1.259       .  A
C15          O23   1.262       .  A
C15        C1236   1.491       .  S
O16          C24   1.261       .  A
O17          C24   1.257       .  A
C18          O25   1.262       .  A
C18          O19   1.261       .  A
C18        C1164   1.495       .  S
C20          O22   1.266       .  A
C20          O26   1.260       .  A
C20        C1119   1.489       .  S
C24        C1140   1.465       .  S
In27         O29   2.229       .  S
In27         O30   2.244       .  S
In27         O38   2.243       .  S
In27         O32   2.270       .  S
In27         O34   2.267       .  S
In27         O35   2.224       .  S
In27         O36   2.255       .  S
In27         O39   2.276       .  S
C28          O34   1.256       .  A
C28          O36   1.259       .  A
C28        C1071   1.478       .  S
O29          C37   1.261       .  A
O30          C37   1.260       .  A
C31          O38   1.256       .  A
C31          O32   1.263       .  A
C31        C1095   1.480       .  S
C33          O35   1.262       .  A
C33          O39   1.266       .  A
C33        C1044   1.484       .  S
C37        C1212   1.470       .  S
In40         O42   2.210       .  S
In40         O43   2.273       .  S
In40         O51   2.235       .  S
In40         O45   2.253       .  S
In40         O47   2.241       .  S
In40         O48   2.215       .  S
In40         O49   2.249       .  S
In40         O52   2.264       .  S
C41          O47   1.257       .  A
C41          O49   1.260       .  A
C41        C1068   1.474       .  S
O42          C50   1.259       .  A
O43          C50   1.265       .  A
C44          O51   1.259       .  A
C44          O45   1.261       .  A
C44        C1023   1.477       .  S
C46          O48   1.256       .  A
C46          O52   1.262       .  A
C46        C1143   1.467       .  S
C50         C996   1.477       .  S
In53         O55   2.252       .  S
In53         O56   2.233       .  S
In53         O64   2.248       .  S
In53         O58   2.294       .  S
In53         O60   2.286       .  S
In53         O61   2.219       .  S
In53         O62   2.264       .  S
In53         O65   2.286       .  S
C54          O60   1.262       .  A
C54          O62   1.258       .  A
C54         C948   1.494       .  S
O55          C63   1.259       .  A
O56          C63   1.258       .  A
C57          O64   1.257       .  A
C57          O58   1.264       .  A
C57         C972   1.488       .  S
C59          O61   1.261       .  A
C59          O65   1.268       .  A
C59        C1191   1.485       .  S
C63         C927   1.470       .  S
In66         O68   2.248       .  S
In66         O69   2.292       .  S
In66         O77   2.290       .  S
In66         O71   2.225       .  S
In66         O73   2.232       .  S
In66         O74   2.302       .  S
In66         O75   2.257       .  S
In66         O78   2.268       .  S
C67          O73   1.259       .  A
C67          O75   1.258       .  A
C67         C876   1.472       .  S
O68          C76   1.258       .  A
O69          C76   1.267       .  A
C70          O77   1.268       .  A
C70          O71   1.260       .  A
C70        C1116   1.490       .  S
C72          O74   1.263       .  A
C72          O78   1.257       .  A
C72         C951   1.498       .  S
C76         C900   1.493       .  S
In79         O81   2.267       .  S
In79         O82   2.287       .  S
In79         O90   2.288       .  S
In79         O84   2.222       .  S
In79         O86   2.209       .  S
In79         O87   2.239       .  S
In79         O88   2.262       .  S
In79         O91   2.284       .  S
C80          O86   1.256       .  A
C80          O88   1.261       .  A
C80         C924   1.466       .  S
O81          C89   1.261       .  A
O82          C89   1.262       .  A
C83          O90   1.267       .  A
C83          O84   1.260       .  A
C83        C1047   1.487       .  S
C85          O87   1.256       .  A
C85          O91   1.262       .  A
C85         C828   1.485       .  S
C89         C855   1.496       .  S
In92         O94   2.229       .  S
In92         O95   2.251       .  S
In92        O103   2.249       .  S
In92         O97   2.261       .  S
In92         O99   2.291       .  S
In92        O100   2.270       .  S
In92        O101   2.234       .  S
In92        O104   2.205       .  S
C93          O99   1.261       .  A
C93         O101   1.254       .  A
C93         C831   1.481       .  S
O94         C102   1.258       .  A
O95         C102   1.263       .  A
C96         O103   1.258       .  A
C96          O97   1.263       .  A
C96         C804   1.482       .  S
C98         O100   1.266       .  A
C98         O104   1.261       .  A
C98         C999   1.478       .  S
C102        C879   1.471       .  S
In105       O107   2.245       .  S
In105       O108   2.302       .  S
In105       O116   2.300   1_556  S
In105       O110   2.262   1_556  S
In105       O112   2.265       .  S
In105       O113   2.320       .  S
In105       O114   2.278       .  S
In105       O117   2.293       .  S
C106        O112   1.259       .  A
C106        O114   1.261       .  A
C106        C807   1.489       .  S
O107        C115   1.259       .  A
O108        C115   1.265       .  A
C109        O116   1.264       .  A
C109        O110   1.259       .  A
C109        C852   1.499       .  S
C111        O113   1.261       .  A
C111        O117   1.259       .  A
C111        C150   1.499       .  S
C115        C128   1.484       .  S
In118       O120   2.243       .  S
In118       O121   2.308       .  S
In118       O129   2.288       .  S
In118       O123   2.252       .  S
In118       O125   2.245   1_556  S
In118       O126   2.322   1_455  S
In118       O127   2.277   1_556  S
In118       O130   2.279   1_455  S
C119        O125   1.259       .  A
C119        O127   1.263       .  A
C119        C780   1.486       .  S
O120        C128   1.257       .  A
O121        C128   1.267       .  A
C122        O129   1.264       .  A
C122        O123   1.258       .  A
C122        C759   1.492       .  S
C124        O126   1.265       .  A
C124        O130   1.258       .  A
C124        C163   1.499       .  S
In131       O133   2.304       .  S
In131       O134   2.237       .  S
In131       O142   2.285   1_556  S
In131       O136   2.260       .  S
In131       O138   2.287       .  S
In131       O139   2.314   1_455  S
In131       O140   2.267       .  S
In131       O143   2.298   1_455  S
C132        O138   1.261       .  A
C132        O140   1.259       .  A
C132        C711   1.493       .  S
O133        C141   1.266       .  A
O134        C141   1.258       .  A
C135        O142   1.264       .  A
C135        O136   1.260   1_554  A
C135        C735   1.494       .  S
C137        O139   1.261       .  A
C137        O143   1.260       .  A
C137        C189   1.500       .  S
C141        C154   1.481       .  S
In144       O146   2.305       .  S
In144       O147   2.236       .  S
In144       O155   2.286       .  S
In144       O149   2.272       .  S
In144       O151   2.236       .  S
In144       O152   2.321   1_545  S
In144       O153   2.279   1_556  S
In144       O156   2.282   1_545  S
C145        O151   1.260   1_554  A
C145        O153   1.263       .  A
C145        C975   1.485       .  S
O146        C154   1.267       .  A
O147        C154   1.258       .  A
C148        O155   1.261       .  A
C148        O149   1.258       .  A
C148        C903   1.493       .  S
C150        O152   1.264       .  A
C150        O156   1.257       .  A
In157       O159   2.228       .  S
In157       O160   2.292       .  S
In157       O168   2.287   1_556  S
In157       O162   2.273   1_556  S
In157       O164   2.252       .  S
In157       O165   2.321       .  S
In157       O166   2.281       .  S
In157       O169   2.287       .  S
C158        O164   1.259       .  A
C158        O166   1.263       .  A
C158        C660   1.488       .  S
O159        C167   1.257       .  A
O160        C167   1.266       .  A
C161        O168   1.261       .  A
C161        O162   1.260       .  A
C161        C684   1.495       .  S
C163        O165   1.262       .  A
C163        O169   1.259       .  A
C167        C180   1.473       .  S
In170       O172   2.288       .  S
In170       O173   2.229       .  S
In170       O181   2.258       .  S
In170       O175   2.239       .  S
In170       O177   2.269   1_556  S
In170       O178   2.295       .  S
In170       O179   2.268   1_556  S
In170       O182   2.278       .  S
C171        O177   1.261       .  A
C171        O179   1.258       .  A
C171       C1092   1.487       .  S
O172        C180   1.265       .  A
O173        C180   1.258       .  A
C174        O181   1.262       .  A
C174        O175   1.260       .  A
C174       C1020   1.479       .  S
C176        O178   1.261       .  A
C176        O182   1.259       .  A
C176        C202   1.488       .  S
In183       O185   2.311       .  S
In183       O186   2.233       .  S
In183       O194   2.269       .  S
In183       O188   2.247       .  S
In183       O190   2.257       .  S
In183       O191   2.313       .  S
In183       O192   2.265   1_556  S
In183       O195   2.291       .  S
C184        O190   1.258   1_554  A
C184        O192   1.263       .  A
C184        C636   1.486       .  S
O185        C193   1.266       .  A
O186        C193   1.256       .  A
C187        O194   1.263       .  A
C187        O188   1.260       .  A
C187        C615   1.485       .  S
C189        O191   1.263       .  A
C189        O195   1.259       .  A
C193        C206   1.480       .  S
In196       O198   2.309       .  S
In196       O199   2.232       .  S
In196       O207   2.281   1_556  S
In196       O201   2.267   1_556  S
In196       O203   2.241       .  S
In196       O204   2.298   1_545  S
In196       O205   2.281       .  S
In196       O208   2.277   1_545  S
C197        O203   1.261       .  A
C197        O205   1.265       .  A
C197       C1167   1.490       .  S
O198        C206   1.266       .  A
O199        C206   1.257       .  A
C200        O207   1.262       .  A
C200        O201   1.259       .  A
C200       C1260   1.492       .  S
C202        O204   1.262       .  A
C202        O208   1.258       .  A
In209       O211   2.270       .  S
In209       O212   2.289       .  S
In209       O220   2.278       .  S
In209       O214   2.230       .  S
In209       O216   2.246       .  S
In209       O217   2.282       .  S
In209       O218   2.245       .  S
In209       O221   2.262       .  S
C210        O216   1.258       .  A
C210        O218   1.256       .  A
C210        C543   1.470       .  S
O211        C219   1.258       .  A
O212        C219   1.261       .  A
C213        O220   1.267       .  A
C213        O214   1.261       .  A
C213        C567   1.483       .  S
C215        O217   1.264       .  A
C215        O221   1.260       .  A
C215        C588   1.493       .  S
C219        C732   1.496       .  S
In222       O224   2.253       .  S
In222       O225   2.248       .  S
In222       O233   2.260       .  S
In222       O227   2.269       .  S
In222       O229   2.258       .  S
In222       O230   2.216       .  S
In222       O231   2.277       .  S
In222       O234   2.276       .  S
C223        O229   1.257       .  A
C223        O231   1.260       .  A
C223        C591   1.487       .  S
O224        C232   1.257       .  A
O225        C232   1.258       .  A
C226        O233   1.260       .  A
C226        O227   1.262       .  A
C226        C708   1.487       .  S
C228        O230   1.260       .  A
C228        O234   1.268       .  A
C228        C516   1.482       .  S
C232        C492   1.473       .  S
In235       O237   2.255       .  S
In235       O238   2.234       .  S
In235       O246   2.288       .  S
In235       O240   2.253       .  S
In235       O242   2.289       .  S
In235       O243   2.223       .  S
In235       O244   2.252       .  S
In235       O247   2.267       .  S
C236        O242   1.263       .  A
C236        O244   1.258       .  A
C236        C468   1.493       .  S
O237        C245   1.259       .  A
O238        C245   1.258       .  A
C239        O246   1.261       .  A
C239        O240   1.258       .  A
C239        C639   1.490       .  S
C241        O243   1.261       .  A
C241        O247   1.267       .  A
C241        C444   1.480       .  S
C245        C540   1.471       .  S
In248       O250   2.242       .  S
In248       O251   2.283       .  S
In248       O259   2.302       .  S
In248       O253   2.195       .  S
In248       O255   2.257       .  S
In248       O256   2.301       .  S
In248       O257   2.241       .  S
In248       O260   2.243       .  S
C249        O255   1.260       .  A
C249        O257   1.257       .  A
C249        C495   1.474       .  S
O250        C258   1.257       .  A
O251        C258   1.264       .  A
C252        O259   1.268       .  A
C252        O253   1.259       .  A
C252        C420   1.487       .  S
C254        O256   1.264       .  A
C254        O260   1.255       .  A
C254        C471   1.491       .  S
C258        C612   1.486       .  S
In261       O263   2.243       .  S
In261       O264   2.248       .  S
In261       O272   2.237       .  S
In261       O266   2.279       .  S
In261       O268   2.278       .  S
In261       O269   2.209       .  S
In261       O270   2.262       .  S
In261       O273   2.278       .  S
C262        O268   1.259       .  A
C262        O270   1.257       .  A
C262        C399   1.487       .  S
O263        C271   1.257       .  A
O264        C271   1.259       .  A
C265        O272   1.257       .  A
C265        O266   1.264       .  A
C265        C783   1.483       .  S
C267        O269   1.264       .  A
C267        O273   1.268       .  A
C267        C564   1.481       .  S
C271        C372   1.471       .  S
In274       O276   2.222       .  S
In274       O277   2.277       .  S
In274       O285   2.286       .  S
In274       O279   2.261       .  S
In274       O281   2.282       .  S
In274       O282   2.230       .  S
In274       O283   2.240       .  S
In274       O286   2.224       .  S
C275        O281   1.264       .  A
C275        O283   1.257       .  A
C275        C396   1.486       .  S
O276        C284   1.259       .  A
O277        C284   1.268       .  A
C278        O285   1.262       .  A
C278        O279   1.258       .  A
C278        C756   1.493       .  S
C280        O282   1.260       .  A
C280        O286   1.260       .  A
C280        C348   1.462       .  S
C284        C519   1.483       .  S
In287       O289   2.246       .  S
In287       O290   2.305       .  S
In287       O298   2.281       .  S
In287       O292   2.221       .  S
In287       O294   2.223       .  S
In287       O295   2.285       .  S
In287       O296   2.237       .  S
In287       O299   2.237       .  S
C288        O294   1.256       .  A
C288        O296   1.260       .  A
C288        C375   1.463       .  S
O289        C297   1.256       .  A
O290        C297   1.266       .  A
C291        O298   1.268       .  A
C291        O292   1.259       .  A
C291        C447   1.484       .  S
C293        O295   1.265       .  A
C293        O299   1.256       .  A
C293        C324   1.487       .  S
C297        C687   1.495       .  S
In300       O302   2.240       .  S
In300       O303   2.223       .  S
In300       O311   2.283       .  S
In300       O305   2.254       .  S
In300       O307   2.280       .  S
In300       O308   2.215       .  S
In300       O309   2.241       .  S
In300       O312   2.297       .  S
C301        O307   1.265       .  A
C301        O309   1.256       .  A
C301        C327   1.488       .  S
O302        C310   1.260       .  A
O303        C310   1.257       .  A
C304        O311   1.260       .  A
C304        O305   1.256       .  A
C304        C663   1.488       .  S
C306        O308   1.259       .  A
C306        O312   1.268       .  A
C306        C423   1.488       .  S
C310        C351   1.462       .  S
C313        C314   1.401       .  A
C313        C318   1.405       .  A
C313        H329   1.084       .  S
C314        C315   1.405       .  A
C314        H330   1.083       .  S
C315        C325   1.406       .  A
C315        C316   1.410       .  A
C316        C322   1.413       .  A
C316        C317   1.416       .  A
C317        C319   1.412       .  A
C317        C318   1.411       .  A
C318        C326   1.407       .  A
C319        C328   1.407       .  A
C319        C320   1.404       .  A
C320        C321   1.400       .  A
C320        H331   1.082       .  S
C321        C322   1.403       .  A
C321        H332   1.084       .  S
C322        C323   1.408       .  A
C323        C324   1.407       .  A
C323        H333   1.085       .  S
C324        C325   1.411       .  A
C325        H334   1.084       .  S
C326        C327   1.411       .  A
C326        H335   1.085       .  S
C327        C328   1.406       .  A
C328        H336   1.083       .  S
C337        C338   1.395       .  A
C337        C342   1.402       .  A
C337        H353   1.084       .  S
C338        C339   1.402       .  A
C338        H354   1.083       .  S
C339        C349   1.395       .  A
C339        C340   1.411       .  A
C340        C346   1.412       .  A
C340        C341   1.405       .  A
C341        C343   1.411       .  A
C341        C342   1.412       .  A
C342        C350   1.396       .  A
C343        C352   1.396       .  A
C343        C344   1.403       .  A
C344        C345   1.396       .  A
C344        H355   1.083       .  S
C345        C346   1.402       .  A
C345        H356   1.085       .  S
C346        C347   1.397       .  A
C347        C348   1.403   1_655  A
C347        H357   1.085       .  S
C348        C349   1.403   1_455  A
C349        H358   1.084   1_655  S
C350        C351   1.401       .  A
C350        H359   1.085       .  S
C351        C352   1.404       .  A
C352        H360   1.084       .  S
C361        C362   1.396       .  A
C361        C366   1.402       .  A
C361        H377   1.083       .  S
C362        C363   1.403       .  A
C362        H378   1.084       .  S
C363        C373   1.399       .  A
C363        C364   1.412       .  A
C364        C370   1.411       .  A
C364        C365   1.407       .  A
C365        C367   1.412       .  A
C365        C366   1.411       .  A
C366        C374   1.397       .  A
C367        C376   1.398       .  A
C367        C368   1.402       .  A
C368        C369   1.397       .  A
C368        H379   1.083       .  S
C369        C370   1.403       .  A
C369        H380   1.084       .  S
C370        C371   1.400       .  A
C371        C372   1.405   1_655  A
C371        H381   1.085   1_655  S
C372        C373   1.404   1_455  A
C373        H382   1.085       .  S
C374        C375   1.404       .  A
C374        H383   1.085       .  S
C375        C376   1.402       .  A
C376        H384   1.084       .  S
C385        C386   1.402       .  A
C385        C390   1.405       .  A
C385        H401   1.083       .  S
C386        C387   1.404       .  A
C386        H402   1.083       .  S
C387        C397   1.409       .  A
C387        C388   1.413       .  A
C388        C394   1.411       .  A
C388        C389   1.416       .  A
C389        C391   1.412       .  A
C389        C390   1.411       .  A
C390        C398   1.408       .  A
C391        C400   1.406       .  A
C391        C392   1.404       .  A
C392        C393   1.400       .  A
C392        H403   1.084       .  S
C393        C394   1.404       .  A
C393        H404   1.083       .  S
C394        C395   1.405       .  A
C395        C396   1.408       .  A
C395        H405   1.084       .  S
C396        C397   1.408       .  A
C397        H406   1.084       .  S
C398        C399   1.409       .  A
C398        H407   1.084       .  S
C399        C400   1.408       .  A
C400        H408   1.085       .  S
C409        C410   1.392       .  A
C409        C414   1.401       .  A
C409        H425   1.085       .  S
C410        C411   1.401       .  A
C410        H426   1.083       .  S
C411        C421   1.393       .  A
C411        C412   1.409       .  A
C412        C418   1.413       .  A
C412        C413   1.415       .  A
C413        C415   1.412       .  A
C413        C414   1.411       .  A
C414        C422   1.395       .  A
C415        C424   1.417       .  A
C415        C416   1.407       .  A
C416        C417   1.408       .  A
C416        H427   1.084       .  S
C417        C418   1.407       .  A
C417        H428   1.083       .  S
C418        C419   1.418       .  A
C419        C420   1.413       .  A
C419        H429   1.083       .  S
C420        C421   1.405       .  A
C421        H430   1.084       .  S
C422        C423   1.405       .  A
C422        H431   1.085       .  S
C423        C424   1.412       .  A
C424        H432   1.084       .  S
C433        C434   1.402       .  A
C433        C438   1.404       .  A
C433        H449   1.084       .  S
C434        C435   1.404       .  A
C434        H450   1.083       .  S
C435        C445   1.408       .  A
C435        C436   1.412       .  A
C436        C442   1.411       .  A
C436        C437   1.414       .  A
C437        C439   1.411       .  A
C437        C438   1.413       .  A
C438        C446   1.409       .  A
C439        C448   1.401       .  A
C439        C440   1.403       .  A
C440        C441   1.398       .  A
C440        H451   1.085       .  S
C441        C442   1.403       .  A
C441        H452   1.082       .  S
C442        C443   1.401       .  A
C443        C444   1.407       .  A
C443        H453   1.084       .  S
C444        C445   1.407       .  A
C445        H454   1.084       .  S
C446        C447   1.407       .  A
C446        H455   1.084       .  S
C447        C448   1.409       .  A
C448        H456   1.085       .  S
C457        C458   1.404       .  A
C457        C462   1.405       .  A
C457        H473   1.083       .  S
C458        C459   1.405       .  A
C458        H474   1.083       .  S
C459        C469   1.412       .  A
C459        C460   1.412       .  A
C460        C466   1.411       .  A
C460        C461   1.418       .  A
C461        C463   1.411       .  A
C461        C462   1.413       .  A
C462        C470   1.412       .  A
C463        C472   1.405       .  A
C463        C464   1.404       .  A
C464        C465   1.400       .  A
C464        H475   1.084       .  S
C465        C466   1.404       .  A
C465        H476   1.083       .  S
C466        C467   1.406       .  A
C467        C468   1.410       .  A
C467        H477   1.084       .  S
C468        C469   1.410       .  A
C469        H478   1.084       .  S
C470        C471   1.409       .  A
C470        H479   1.084       .  S
C471        C472   1.410       .  A
C472        H480   1.085       .  S
C481        C482   1.399       .  A
C481        C486   1.404       .  A
C481        H497   1.084       .  S
C482        C483   1.404       .  A
C482        H498   1.083       .  S
C483        C493   1.403       .  A
C483        C484   1.412       .  A
C484        C490   1.411       .  A
C484        C485   1.410       .  A
C485        C487   1.412       .  A
C485        C486   1.411       .  A
C486        C494   1.401       .  A
C487        C496   1.401       .  A
C487        C488   1.403       .  A
C488        C489   1.397       .  A
C488        H499   1.083       .  S
C489        C490   1.402       .  A
C489        H500   1.084       .  S
C490        C491   1.399       .  A
C491        C492   1.404   1_655  A
C491        H501   1.084   1_655  S
C492        C493   1.407   1_455  A
C493        H502   1.084   1_655  S
C494        C495   1.406       .  A
C494        H503   1.085       .  S
C495        C496   1.404       .  A
C496        H504   1.084       .  S
C505        C506   1.397       .  A
C505        C510   1.403       .  A
C505        H521   1.084       .  S
C506        C507   1.403       .  A
C506        H522   1.084       .  S
C507        C517   1.400       .  A
C507        C508   1.410       .  A
C508        C514   1.413       .  A
C508        C509   1.413       .  A
C509        C511   1.412       .  A
C509        C510   1.410       .  A
C510        C518   1.400       .  A
C511        C520   1.409       .  A
C511        C512   1.404       .  A
C512        C513   1.402       .  A
C512        H523   1.084       .  S
C513        C514   1.404       .  A
C513        H524   1.083       .  S
C514        C515   1.409       .  A
C515        C516   1.407       .  A
C515        H525   1.084       .  S
C516        C517   1.408       .  A
C517        H526   1.084       .  S
C518        C519   1.408       .  A
C518        H527   1.085       .  S
C519        C520   1.407       .  A
C520        H528   1.084       .  S
C529        C530   1.399       .  A
C529        C534   1.403       .  A
C529        H545   1.084       .  S
C530        C531   1.404       .  A
C530        H546   1.084       .  S
C531        C541   1.403       .  A
C531        C532   1.412       .  A
C532        C538   1.411       .  A
C532        C533   1.409       .  A
C533        C535   1.412       .  A
C533        C534   1.411       .  A
C534        C542   1.401   1_655  A
C535        C544   1.399   1_655  A
C535        C536   1.402       .  A
C536        C537   1.396       .  A
C536        H547   1.084       .  S
C537        C538   1.402       .  A
C537        H548   1.084       .  S
C538        C539   1.398       .  A
C539        C540   1.404       .  A
C539        H549   1.084       .  S
C540        C541   1.405       .  A
C541        H550   1.084       .  S
C542        C543   1.405       .  A
C542        H551   1.084       .  S
C543        C544   1.403       .  A
C544        H552   1.085       .  S
C553        C554   1.395       .  A
C553        C558   1.402       .  A
C553        H569   1.083       .  S
C554        C555   1.401       .  A
C554        H570   1.085       .  S
C555        C565   1.397       .  A
C555        C556   1.410       .  A
C556        C562   1.413       .  A
C556        C557   1.415       .  A
C557        C559   1.412       .  A
C557        C558   1.411       .  A
C558        C566   1.400       .  A
C559        C568   1.412       .  A
C559        C560   1.406       .  A
C560        C561   1.405       .  A
C560        H571   1.084       .  S
C561        C562   1.406       .  A
C561        H572   1.083       .  S
C562        C563   1.414       .  A
C563        C564   1.410       .  A
C563        H573   1.083       .  S
C564        C565   1.403       .  A
C565        H574   1.086       .  S
C566        C567   1.405       .  A
C566        H575   1.084       .  S
C567        C568   1.410       .  A
C568        H576   1.084       .  S
C577        C578   1.402       .  A
C577        C582   1.405       .  A
C577        H593   1.083       .  S
C578        C579   1.405       .  A
C578        H594   1.084       .  S
C579        C589   1.410       .  A
C579        C580   1.412       .  A
C580        C586   1.412       .  A
C580        C581   1.417       .  A
C581        C583   1.412       .  A
C581        C582   1.411       .  A
C582        C590   1.407       .  A
C583        C592   1.407       .  A
C583        C584   1.404       .  A
C584        C585   1.401       .  A
C584        H595   1.083       .  S
C585        C586   1.405       .  A
C585        H596   1.083       .  S
C586        C587   1.409       .  A
C587        C588   1.409       .  A
C587        H597   1.084       .  S
C588        C589   1.411       .  A
C589        H598   1.085       .  S
C590        C591   1.409       .  A
C590        H599   1.084       .  S
C591        C592   1.407       .  A
C592        H600   1.084       .  S
C601        C602   1.400       .  A
C601        C606   1.404       .  A
C601        H617   1.083       .  S
C602        C603   1.404       .  A
C602        H618   1.084       .  S
C603        C613   1.404       .  A
C603        C604   1.411       .  A
C604        C610   1.413       .  A
C604        C605   1.415       .  A
C605        C607   1.412       .  A
C605        C606   1.412       .  A
C606        C614   1.405       .  A
C607        C616   1.407       .  A
C607        C608   1.405       .  A
C608        C609   1.401       .  A
C608        H619   1.084       .  S
C609        C610   1.405       .  A
C609        H620   1.084       .  S
C610        C611   1.409       .  A
C611        C612   1.408       .  A
C611        H621   1.084       .  S
C612        C613   1.409       .  A
C613        H622   1.084       .  S
C614        C615   1.408       .  A
C614        H623   1.084       .  S
C615        C616   1.408       .  A
C616        H624   1.084       .  S
C625        C626   1.404       .  A
C625        C630   1.406       .  A
C625        H641   1.082       .  S
C626        C627   1.405       .  A
C626        H642   1.084       .  S
C627        C637   1.409       .  A
C627        C628   1.411       .  A
C628        C634   1.412       .  A
C628        C629   1.416       .  A
C629        C631   1.411       .  A
C629        C630   1.412       .  A
C630        C638   1.413       .  A
C631        C640   1.403       .  A
C631        C632   1.403       .  A
C632        C633   1.398       .  A
C632        H643   1.084       .  S
C633        C634   1.402       .  A
C633        H644   1.083       .  S
C634        C635   1.404       .  A
C635        C636   1.405       .  A
C635        H645   1.084       .  S
C636        C637   1.411       .  A
C637        H646   1.085       .  S
C638        C639   1.412       .  A
C638        H647   1.083       .  S
C639        C640   1.407       .  A
C640        H648   1.084       .  S
C649        C650   1.401       .  A
C649        C654   1.405       .  A
C649        H665   1.083       .  S
C650        C651   1.404       .  A
C650        H666   1.083       .  S
C651        C661   1.409       .  A
C651        C652   1.413       .  A
C652        C658   1.411       .  A
C652        C653   1.416       .  A
C653        C655   1.412       .  A
C653        C654   1.410       .  A
C654        C662   1.405       .  A
C655        C664   1.410       .  A
C655        C656   1.405       .  A
C656        C657   1.402       .  A
C656        H667   1.081       .  S
C657        C658   1.404       .  A
C657        H668   1.085       .  S
C658        C659   1.406       .  A
C659        C660   1.409       .  A
C659        H669   1.085       .  S
C660        C661   1.408       .  A
C661        H670   1.084       .  S
C662        C663   1.409       .  A
C662        H671   1.084       .  S
C663        C664   1.409       .  A
C664        H672   1.082       .  S
C673        C674   1.405       .  A
C673        C678   1.405       .  A
C673        H689   1.083       .  S
C674        C675   1.405       .  A
C674        H690   1.081       .  S
C675        C685   1.413       .  A
C675        C676   1.411       .  A
C676        C682   1.412       .  A
C676        C677   1.420       .  A
C677        C679   1.410       .  A
C677        C678   1.413       .  A
C678        C686   1.415       .  A
C679        C688   1.407       .  A
C679        C680   1.405       .  A
C680        C681   1.401       .  A
C680        H691   1.083       .  S
C681        C682   1.404       .  A
C681        H692   1.083       .  S
C682        C683   1.410       .  A
C683        C684   1.409       .  A
C683        H693   1.084       .  S
C684        C685   1.412       .  A
C685        H694   1.083       .  S
C686        C687   1.410       .  A
C686        H695   1.084       .  S
C687        C688   1.410       .  A
C688        H696   1.084       .  S
C697        C698   1.402       .  A
C697        C702   1.405       .  A
C697        H713   1.083       .  S
C698        C699   1.404       .  A
C698        H714   1.084       .  S
C699        C709   1.408       .  A
C699        C700   1.411       .  A
C700        C706   1.412       .  A
C700        C701   1.418       .  A
C701        C703   1.411       .  A
C701        C702   1.412       .  A
C702        C710   1.411       .  A
C703        C712   1.407       .  A
C703        C704   1.404       .  A
C704        C705   1.401       .  A
C704        H715   1.084       .  S
C705        C706   1.404       .  A
C705        H716   1.083       .  S
C706        C707   1.408       .  A
C707        C708   1.409       .  A
C707        H717   1.084       .  S
C708        C709   1.409       .  A
C709        H718   1.084       .  S
C710        C711   1.411       .  A
C710        H719   1.084       .  S
C711        C712   1.409       .  A
C712        H720   1.085       .  S
C721        C722   1.402       .  A
C721        C726   1.405       .  A
C721        H737   1.083       .  S
C722        C723   1.405       .  A
C722        H738   1.084       .  S
C723        C733   1.409       .  A
C723        C724   1.411       .  A
C724        C730   1.412       .  A
C724        C725   1.419       .  A
C725        C727   1.412       .  A
C725        C726   1.411       .  A
C726        C734   1.408       .  A
C727        C736   1.412       .  A
C727        C728   1.405       .  A
C728        C729   1.403       .  A
C728        H739   1.083       .  S
C729        C730   1.405       .  A
C729        H740   1.083       .  S
C730        C731   1.412       .  A
C731        C732   1.411       .  A
C731        H741   1.084       .  S
C732        C733   1.411       .  A
C733        H742   1.084       .  S
C734        C735   1.410       .  A
C734        H743   1.084       .  S
C735        C736   1.410       .  A
C736        H744   1.084       .  S
C745        C746   1.402       .  A
C745        C750   1.405       .  A
C745        H761   1.083       .  S
C746        C747   1.404       .  A
C746        H762   1.084       .  S
C747        C757   1.410       .  A
C747        C748   1.413       .  A
C748        C754   1.410       .  A
C748        C749   1.418       .  A
C749        C751   1.413       .  A
C749        C750   1.410       .  A
C750        C758   1.407       .  A
C751        C760   1.411       .  A
C751        C752   1.404       .  A
C752        C753   1.402       .  A
C752        H763   1.084       .  S
C753        C754   1.406       .  A
C753        H764   1.083       .  S
C754        C755   1.409       .  A
C755        C756   1.411       .  A
C755        H765   1.083       .  S
C756        C757   1.409       .  A
C757        H766   1.084       .  S
C758        C759   1.411       .  A
C758        H767   1.084       .  S
C759        C760   1.409       .  A
C760        H768   1.084       .  S
C769        C770   1.402       .  A
C769        C774   1.405       .  A
C769        H785   1.084       .  S
C770        C771   1.405       .  A
C770        H786   1.084       .  S
C771        C781   1.409       .  A
C771        C772   1.412       .  A
C772        C778   1.411       .  A
C772        C773   1.415       .  A
C773        C775   1.411       .  A
C773        C774   1.412       .  A
C774        C782   1.409       .  A
C775        C784   1.404       .  A
C775        C776   1.404       .  A
C776        C777   1.399       .  A
C776        H787   1.083       .  S
C777        C778   1.403       .  A
C777        H788   1.084       .  S
C778        C779   1.404       .  A
C779        C780   1.407       .  A
C779        H789   1.085       .  S
C780        C781   1.409       .  A
C781        H790   1.084       .  S
C782        C783   1.408       .  A
C782        H791   1.084       .  S
C783        C784   1.407       .  A
C784        H792   1.084       .  S
C793        C794   1.400       .  A
C793        C798   1.404       .  A
C793        H809   1.084       .  S
C794        C795   1.404       .  A
C794        H810   1.084       .  S
C795        C805   1.405       .  A
C795        C796   1.411       .  A
C796        C802   1.412       .  A
C796        C797   1.416       .  A
C797        C799   1.411       .  A
C797        C798   1.412       .  A
C798        C806   1.407       .  A
C799        C808   1.407       .  A
C799        C800   1.405       .  A
C800        C801   1.401       .  A
C800        H811   1.084       .  S
C801        C802   1.404       .  A
C801        H812   1.083       .  S
C802        C803   1.407       .  A
C803        C804   1.408       .  A
C803        H813   1.084       .  S
C804        C805   1.406       .  A
C805        H814   1.084       .  S
C806        C807   1.408       .  A
C806        H815   1.084       .  S
C807        C808   1.409       .  A
C808        H816   1.084       .  S
C817        C818   1.403       .  A
C817        C822   1.405       .  A
C817        H833   1.084       .  S
C818        C819   1.405       .  A
C818        H834   1.083       .  S
C819        C829   1.410       .  A
C819        C820   1.412       .  A
C820        C826   1.411       .  A
C820        C821   1.415       .  A
C821        C823   1.411       .  A
C821        C822   1.413       .  A
C822        C830   1.410       .  A
C823        C832   1.401       .  A
C823        C824   1.403       .  A
C824        C825   1.398       .  A
C824        H835   1.084       .  S
C825        C826   1.403       .  A
C825        H836   1.083       .  S
C826        C827   1.403       .  A
C827        C828   1.407       .  A
C827        H837   1.084       .  S
C828        C829   1.409       .  A
C829        H838   1.084       .  S
C830        C831   1.408       .  A
C830        H839   1.084       .  S
C831        C832   1.406       .  A
C832        H840   1.085       .  S
C841        C842   1.400       .  A
C841        C846   1.403       .  A
C841        H857   1.083       .  S
C842        C843   1.404       .  A
C842        H858   1.083       .  S
C843        C853   1.408       .  A
C843        C844   1.411       .  A
C844        C850   1.412       .  A
C844        C845   1.421       .  A
C845        C847   1.412       .  A
C845        C846   1.412       .  A
C846        C854   1.408       .  A
C847        C856   1.416       .  A
C847        C848   1.407       .  A
C848        C849   1.406       .  A
C848        H859   1.084       .  S
C849        C850   1.407       .  A
C849        H860   1.083       .  S
C850        C851   1.416       .  A
C851        C852   1.413       .  A
C851        H861   1.083       .  S
C852        C853   1.410       .  A
C853        H862   1.084       .  S
C854        C855   1.408       .  A
C854        H863   1.084       .  S
C855        C856   1.414       .  A
C856        H864   1.084       .  S
C865        C866   1.399       .  A
C865        C870   1.404       .  A
C865        H881   1.083       .  S
C866        C867   1.404       .  A
C866        H882   1.084       .  S
C867        C877   1.404   1_565  A
C867        C868   1.413       .  A
C868        C874   1.410       .  A
C868        C869   1.409       .  A
C869        C871   1.413       .  A
C869        C870   1.410       .  A
C870        C878   1.400       .  A
C871        C880   1.401       .  A
C871        C872   1.402       .  A
C872        C873   1.396       .  A
C872        H883   1.084       .  S
C873        C874   1.402       .  A
C873        H884   1.083       .  S
C874        C875   1.397   1_565  A
C875        C876   1.403       .  A
C875        H885   1.084       .  S
C876        C877   1.406       .  A
C877        H886   1.085       .  S
C878        C879   1.406       .  A
C878        H887   1.084       .  S
C879        C880   1.403       .  A
C880        H888   1.085       .  S
C889        C890   1.402       .  A
C889        C894   1.405       .  A
C889        H905   1.082       .  S
C890        C891   1.405       .  A
C890        H906   1.083       .  S
C891        C901   1.411       .  A
C891        C892   1.413       .  A
C892        C898   1.411       .  A
C892        C893   1.419       .  A
C893        C895   1.412       .  A
C893        C894   1.411       .  A
C894        C902   1.410       .  A
C895        C904   1.410       .  A
C895        C896   1.405       .  A
C896        C897   1.402       .  A
C896        H907   1.083       .  S
C897        C898   1.405       .  A
C897        H908   1.084       .  S
C898        C899   1.408       .  A
C899        C900   1.412       .  A
C899        H909   1.084       .  S
C900        C901   1.409       .  A
C901        H910   1.084       .  S
C902        C903   1.410       .  A
C902        H911   1.084       .  S
C903        C904   1.410       .  A
C904        H912   1.084       .  S
C913        C914   1.400       .  A
C913        C918   1.404       .  A
C913        H929   1.083       .  S
C914        C915   1.404       .  A
C914        H930   1.084       .  S
C915        C925   1.404       .  A
C915        C916   1.413       .  A
C916        C922   1.410       .  A
C916        C917   1.407       .  A
C917        C919   1.412       .  A
C917        C918   1.411       .  A
C918        C926   1.403   1_565  A
C919        C928   1.395   1_565  A
C919        C920   1.401       .  A
C920        C921   1.393       .  A
C920        H931   1.083       .  S
C921        C922   1.401       .  A
C921        H932   1.084       .  S
C922        C923   1.392       .  A
C923        C924   1.402       .  A
C923        H933   1.085       .  S
C924        C925   1.405       .  A
C925        H934   1.084       .  S
C926        C927   1.406       .  A
C926        H935   1.084       .  S
C927        C928   1.403       .  A
C928        H936   1.084       .  S
C937        C938   1.403       .  A
C937        C942   1.406       .  A
C937        H953   1.083       .  S
C938        C939   1.405       .  A
C938        H954   1.084       .  S
C939        C949   1.411       .  A
C939        C940   1.412       .  A
C940        C946   1.411       .  A
C940        C941   1.420       .  A
C941        C943   1.411       .  A
C941        C942   1.412       .  A
C942        C950   1.413       .  A
C943        C952   1.410       .  A
C943        C944   1.405       .  A
C944        C945   1.402       .  A
C944        H955   1.083       .  S
C945        C946   1.404       .  A
C945        H956   1.083       .  S
C946        C947   1.409       .  A
C947        C948   1.410       .  A
C947        H957   1.084       .  S
C948        C949   1.410       .  A
C949        H958   1.084       .  S
C950        C951   1.411       .  A
C950        H959   1.083       .  S
C951        C952   1.411       .  A
C952        H960   1.084       .  S
C961        C962   1.404       .  A
C961        C966   1.405       .  A
C961        H977   1.084       .  S
C962        C963   1.406       .  A
C962        H978   1.083       .  S
C963        C973   1.412       .  A
C963        C964   1.412       .  A
C964        C970   1.411       .  A
C964        C965   1.416       .  A
C965        C967   1.411       .  A
C965        C966   1.413       .  A
C966        C974   1.411       .  A
C967        C976   1.401       .  A
C967        C968   1.403       .  A
C968        C969   1.398       .  A
C968        H979   1.084       .  S
C969        C970   1.403       .  A
C969        H980   1.084       .  S
C970        C971   1.403       .  A
C971        C972   1.407       .  A
C971        H981   1.085       .  S
C972        C973   1.410       .  A
C973        H982   1.084       .  S
C974        C975   1.410       .  A
C974        H983   1.084       .  S
C975        C976   1.406       .  A
C976        H984   1.084       .  S
C985        C986   1.404       .  A
C985        C990   1.406       .  A
C985       H1001   1.083       .  S
C986        C987   1.405       .  A
C986       H1002   1.084       .  S
C987        C997   1.410       .  A
C987        C988   1.413       .  A
C988        C994   1.410       .  A
C988        C989   1.411       .  A
C989        C991   1.410       .  A
C989        C990   1.412       .  A
C990        C998   1.411       .  A
C991       C1000   1.393       .  A
C991        C992   1.401       .  A
C992        C993   1.392       .  A
C992       H1003   1.084       .  S
C993        C994   1.401       .  A
C993       H1004   1.083       .  S
C994        C995   1.393       .  A
C995        C996   1.404       .  A
C995       H1005   1.084       .  S
C996        C997   1.409       .  A
C997       H1006   1.084       .  S
C998        C999   1.409       .  A
C998       H1007   1.083       .  S
C999       C1000   1.403       .  A
C1000      H1008   1.085       .  S
C1009      C1010   1.397       .  A
C1009      C1014   1.403       .  A
C1009      H1025   1.085       .  S
C1010      C1011   1.403       .  A
C1010      H1026   1.083       .  S
C1011      C1021   1.401       .  A
C1011      C1012   1.411       .  A
C1012      C1018   1.412       .  A
C1012      C1013   1.412       .  A
C1013      C1015   1.412       .  A
C1013      C1014   1.412       .  A
C1014      C1022   1.400       .  A
C1015      C1024   1.405       .  A
C1015      C1016   1.404       .  A
C1016      C1017   1.400       .  A
C1016      H1027   1.084       .  S
C1017      C1018   1.404       .  A
C1017      H1028   1.083       .  S
C1018      C1019   1.405       .  A
C1019      C1020   1.408       .  A
C1019      H1029   1.083       .  S
C1020      C1021   1.406       .  A
C1021      H1030   1.084       .  S
C1022      C1023   1.405       .  A
C1022      H1031   1.086       .  S
C1023      C1024   1.408       .  A
C1024      H1032   1.084       .  S
C1033      C1034   1.405       .  A
C1033      C1038   1.406       .  A
C1033      H1049   1.084       .  S
C1034      C1035   1.406       .  A
C1034      H1050   1.083       .  S
C1035      C1045   1.413       .  A
C1035      C1036   1.412       .  A
C1036      C1042   1.411       .  A
C1036      C1037   1.415       .  A
C1037      C1039   1.410       .  A
C1037      C1038   1.413       .  A
C1038      C1046   1.414       .  A
C1039      C1048   1.398       .  A
C1039      C1040   1.402       .  A
C1040      C1041   1.395       .  A
C1040      H1051   1.084       .  S
C1041      C1042   1.402       .  A
C1041      H1052   1.084       .  S
C1042      C1043   1.399       .  A
C1043      C1044   1.405       .  A
C1043      H1053   1.084       .  S
C1044      C1045   1.410       .  A
C1045      H1054   1.084       .  S
C1046      C1047   1.411       .  A
C1046      H1055   1.084       .  S
C1047      C1048   1.406       .  A
C1048      H1056   1.084       .  S
C1057      C1058   1.401       .  A
C1057      C1062   1.405       .  A
C1057      H1073   1.084       .  S
C1058      C1059   1.404       .  A
C1058      H1074   1.083       .  S
C1059      C1069   1.405       .  A
C1059      C1060   1.411       .  A
C1060      C1066   1.412       .  A
C1060      C1061   1.412       .  A
C1061      C1063   1.411       .  A
C1061      C1062   1.413       .  A
C1062      C1070   1.408       .  A
C1063      C1072   1.399       .  A
C1063      C1064   1.402       .  A
C1064      C1065   1.396       .  A
C1064      H1075   1.085       .  S
C1065      C1066   1.402       .  A
C1065      H1076   1.083       .  S
C1066      C1067   1.400       .  A
C1067      C1068   1.404       .  A
C1067      H1077   1.085       .  S
C1068      C1069   1.407       .  A
C1069      H1078   1.084       .  S
C1070      C1071   1.409       .  A
C1070      H1079   1.085       .  S
C1071      C1072   1.404       .  A
C1072      H1080   1.085       .  S
C1081      C1082   1.399       .  A
C1081      C1086   1.403       .  A
C1081      H1097   1.084       .  S
C1082      C1083   1.404       .  A
C1082      H1098   1.083       .  S
C1083      C1093   1.405       .  A
C1083      C1084   1.411       .  A
C1084      C1090   1.412       .  A
C1084      C1085   1.415       .  A
C1085      C1087   1.411       .  A
C1085      C1086   1.413       .  A
C1086      C1094   1.405       .  A
C1087      C1096   1.406       .  A
C1087      C1088   1.405       .  A
C1088      C1089   1.402       .  A
C1088      H1099   1.082       .  S
C1089      C1090   1.405       .  A
C1089      H1100   1.085       .  S
C1090      C1091   1.408       .  A
C1091      C1092   1.409       .  A
C1091      H1101   1.085       .  S
C1092      C1093   1.407       .  A
C1093      H1102   1.084       .  S
C1094      C1095   1.405       .  A
C1094      H1103   1.085       .  S
C1095      C1096   1.408       .  A
C1096      H1104   1.084       .  S
C1105      C1106   1.404       .  A
C1105      C1110   1.406       .  A
C1105      H1121   1.083       .  S
C1106      C1107   1.406       .  A
C1106      H1122   1.083       .  S
C1107      C1117   1.414       .  A
C1107      C1108   1.413       .  A
C1108      C1114   1.410       .  A
C1108      C1109   1.417       .  A
C1109      C1111   1.411       .  A
C1109      C1110   1.412       .  A
C1110      C1118   1.412       .  A
C1111      C1120   1.403       .  A
C1111      C1112   1.403       .  A
C1112      C1113   1.398       .  A
C1112      H1123   1.083       .  S
C1113      C1114   1.403       .  A
C1113      H1124   1.084       .  S
C1114      C1115   1.402       .  A
C1115      C1116   1.408       .  A
C1115      H1125   1.085       .  S
C1116      C1117   1.410       .  A
C1117      H1126   1.083       .  S
C1118      C1119   1.410       .  A
C1118      H1127   1.084       .  S
C1119      C1120   1.408       .  A
C1120      H1128   1.084       .  S
C1129      C1130   1.400       .  A
C1129      C1134   1.404       .  A
C1129      H1145   1.084       .  S
C1130      C1131   1.404       .  A
C1130      H1146   1.083       .  S
C1131      C1141   1.402       .  A
C1131      C1132   1.412       .  A
C1132      C1138   1.412       .  A
C1132      C1133   1.407       .  A
C1133      C1135   1.410       .  A
C1133      C1134   1.413       .  A
C1134      C1142   1.404       .  A
C1135      C1144   1.392       .  A
C1135      C1136   1.402       .  A
C1136      C1137   1.394       .  A
C1136      H1147   1.084       .  S
C1137      C1138   1.401       .  A
C1137      H1148   1.084       .  S
C1138      C1139   1.394       .  A
C1139      C1140   1.403   1_565  A
C1139      H1149   1.085   1_565  S
C1140      C1141   1.404   1_545  A
C1141      H1150   1.084   1_565  S
C1142      C1143   1.405       .  A
C1142      H1151   1.085       .  S
C1143      C1144   1.403       .  A
C1144      H1152   1.085       .  S
C1153      C1154   1.405       .  A
C1153      C1158   1.406       .  A
C1153      H1169   1.084       .  S
C1154      C1155   1.407       .  A
C1154      H1170   1.083       .  S
C1155      C1165   1.413       .  A
C1155      C1156   1.411       .  A
C1156      C1162   1.411       .  A
C1156      C1157   1.418       .  A
C1157      C1159   1.411       .  A
C1157      C1158   1.413       .  A
C1158      C1166   1.413       .  A
C1159      C1168   1.403       .  A
C1159      C1160   1.403       .  A
C1160      C1161   1.399       .  A
C1160      H1171   1.084       .  S
C1161      C1162   1.404       .  A
C1161      H1172   1.083       .  S
C1162      C1163   1.406       .  A
C1163      C1164   1.409       .  A
C1163      H1173   1.083       .  S
C1164      C1165   1.413       .  A
C1165      H1174   1.084       .  S
C1166      C1167   1.411       .  A
C1166      H1175   1.084       .  S
C1167      C1168   1.407       .  A
C1168      H1176   1.085       .  S
C1177      C1178   1.406       .  A
C1177      C1182   1.406       .  A
C1177      H1193   1.084       .  S
C1178      C1179   1.407       .  A
C1178      H1194   1.084       .  S
C1179      C1189   1.416       .  A
C1179      C1180   1.413       .  A
C1180      C1186   1.410       .  A
C1180      C1181   1.417       .  A
C1181      C1183   1.411       .  A
C1181      C1182   1.413       .  A
C1182      C1190   1.414       .  A
C1183      C1192   1.399       .  A
C1183      C1184   1.402       .  A
C1184      C1185   1.396       .  A
C1184      H1195   1.084       .  S
C1185      C1186   1.403       .  A
C1185      H1196   1.083       .  S
C1186      C1187   1.401       .  A
C1187      C1188   1.407       .  A
C1187      H1197   1.084       .  S
C1188      C1189   1.412       .  A
C1189      H1198   1.084       .  S
C1190      C1191   1.410       .  A
C1190      H1199   1.084       .  S
C1191      C1192   1.406       .  A
C1192      H1200   1.085       .  S
C1201      C1202   1.396       .  A
C1201      C1206   1.402       .  A
C1201      H1217   1.084       .  S
C1202      C1203   1.403       .  A
C1202      H1218   1.083       .  S
C1203      C1213   1.397       .  A
C1203      C1204   1.410       .  A
C1204      C1210   1.413       .  A
C1204      C1205   1.408       .  A
C1205      C1207   1.410       .  A
C1205      C1206   1.413       .  A
C1206      C1214   1.400   1_565  A
C1207      C1216   1.399   1_565  A
C1207      C1208   1.404       .  A
C1208      C1209   1.398       .  A
C1208      H1219   1.084       .  S
C1209      C1210   1.403       .  A
C1209      H1220   1.084       .  S
C1210      C1211   1.402       .  A
C1211      C1212   1.405       .  A
C1211      H1221   1.085       .  S
C1212      C1213   1.404       .  A
C1213      H1222   1.084       .  S
C1214      C1215   1.402       .  A
C1214      H1223   1.085       .  S
C1215      C1216   1.406       .  A
C1216      H1224   1.084       .  S
C1225      C1226   1.403       .  A
C1225      C1230   1.405       .  A
C1225      H1241   1.082       .  S
C1226      C1227   1.405       .  A
C1226      H1242   1.085       .  S
C1227      C1237   1.411       .  A
C1227      C1228   1.413       .  A
C1228      C1234   1.411       .  A
C1228      C1229   1.418       .  A
C1229      C1231   1.412       .  A
C1229      C1230   1.410       .  A
C1230      C1238   1.408       .  A
C1231      C1240   1.409       .  A
C1231      C1232   1.404       .  A
C1232      C1233   1.401       .  A
C1232      H1243   1.082       .  S
C1233      C1234   1.404       .  A
C1233      H1244   1.084       .  S
C1234      C1235   1.407       .  A
C1235      C1236   1.408       .  A
C1235      H1245   1.084       .  S
C1236      C1237   1.411       .  A
C1237      H1246   1.085       .  S
C1238      C1239   1.411       .  A
C1238      H1247   1.083       .  S
C1239      C1240   1.408       .  A
C1240      H1248   1.082       .  S
C1249      C1250   1.401       .  A
C1249      C1254   1.404       .  A
C1249      H1265   1.084       .  S
C1250      C1251   1.405       .  A
C1250      H1266   1.083       .  S
C1251      C1261   1.408       .  A
C1251      C1252   1.411       .  A
C1252      C1258   1.412       .  A
C1252      C1253   1.418       .  A
C1253      C1255   1.411       .  A
C1253      C1254   1.412       .  A
C1254      C1262   1.408       .  A
C1255      C1264   1.410       .  A
C1255      C1256   1.406       .  A
C1256      C1257   1.402       .  A
C1256      H1267   1.082       .  S
C1257      C1258   1.404       .  A
C1257      H1268   1.085       .  S
C1258      C1259   1.409       .  A
C1259      C1260   1.409       .  A
C1259      H1269   1.085       .  S
C1260      C1261   1.410       .  A
C1261      H1270   1.084       .  S
C1262      C1263   1.408       .  A
C1262      H1271   1.085       .  S
C1263      C1264   1.410       .  A
C1264      H1272   1.083       .  S
