geometry optimzed in LAMMPS
_audit_creation_date              2020-11-30 
_audit_creation_method            'lammps2cif' 
_symmetry_space_group_name_H-M    'P1' 
_symmetry_Int_Tables_number       1 
_symmetry_cell_setting            triclinic 
loop_ 
_symmetry_equiv_pos_as_xyz 
  x,y,z 
_cell_length_a                    46.58627094 
_cell_length_b                    33.30390479543664 
_cell_length_c                    40.863112483646226 
_cell_angle_alpha                 90.33981061993256 
_cell_angle_beta                  89.91879103201556 
_cell_angle_gamma                 90.08220184916722 
loop_ 
_atom_site_label 
_atom_site_type_symbol 
_atom_site_fract_x 
_atom_site_fract_y 
_atom_site_fract_z 
_atom_site_charge 
C1          C  0.05487439  0.09815906  0.09452534     0.82100
N2          N  0.06768215  0.09815267  0.06438603    -0.76200
C3          C  0.05690274  0.07575381  0.03933964     0.84500
N4          N  0.03415019  0.05137325  0.04510950    -0.76200
C5          C  0.02152099  0.05011513  0.07512433     0.84600
N6          N  0.03166966  0.07394709  0.09988438    -0.77900
O7          O  0.89439979  0.48106138  0.03070204    -0.76600
C8          C  0.97676659  0.41996300  0.99550807     0.84400
O9          O  0.89674225  0.35767587  0.08075823    -0.77700
O10         O  0.99791884  0.38714326  0.10792204    -0.79200
O11         O  0.97131346  0.52850776  0.09254448    -0.79000
O12         O  0.89818305  0.51442419  0.07807643    -0.77600
Zn13       Zn  0.92175161  0.43429301  0.03424467     1.55700
O14         O  0.00401894  0.48337404  0.07645785    -0.79000
Cd15       Cd  0.93562476  0.49077257  0.09737879     1.59700
Cd16       Cd  0.92481595  0.39677481  0.10449124     1.59600
O17         O  0.92421479  0.48392816  0.14586502    -0.79000
O18         O  0.94182225  0.43736858  0.07551564    -1.89500
Cd19       Cd  0.98363237  0.42794328  0.07087105     1.59900
O20         O  0.90082616  0.42644814  0.13831762    -0.79000
O21         O  0.99184884  0.41413748  0.02131749    -0.77600
C22         C  0.88604289  0.35989650  0.05210350     0.84900
C23         C  0.88485258  0.50636835  0.05162477     0.84600
O24         O  0.95021936  0.42939524  0.99685659    -0.76600
C25         C  0.99680444  0.51935289  0.08374969     0.85400
O26         O  0.89454025  0.38674237  0.03221877    -0.76700
C27         C  0.90441494  0.45938949  0.15366854     0.85500
C28         C  0.98352915  0.36885295  0.13023287     0.85800
O29         O  0.95623056  0.36936648  0.13098521    -0.79100
N30         N  0.80316895  0.24356881  0.50918633    -0.01600
C31         C  0.77517653  0.23268012  0.01484963     0.01000
C32         C  0.76986628  0.19712514  0.49712090    -0.21900
C33         C  0.79372820  0.18897718  0.47844598    -0.22100
C34         C  0.81366829  0.21825713  0.48609146     0.00900
H35         H  0.74926551  0.18226368  0.49513501     0.14700
H36         H  0.79523481  0.16687880  0.45910054     0.14700
C37         C  0.99768808  0.34792191  0.15770587     0.82100
N38         N  0.98449001  0.34852460  0.18760378    -0.76200
C39         C  0.99571218  0.32830212  0.21336814     0.84500
N40         N  0.01938280  0.30538427  0.20854068    -0.76200
C41         C  0.03238943  0.30350515  0.17875017     0.84600
N42         N  0.02166221  0.32507001  0.15323771    -0.77900
O43         O  0.15670662  0.22858531  0.22712580    -0.76600
C44         C  0.07227833  0.17038445  0.25740125     0.84400
O45         O  0.15551807  0.11440621  0.16751502    -0.77700
O46         O  0.05396794  0.13848309  0.14431234    -0.79200
O47         O  0.08052711  0.28278569  0.16874613    -0.79000
O48         O  0.15377503  0.26667057  0.18248711    -0.77600
Zn49       Zn  0.12833397  0.18355529  0.21996760     1.55700
O50         O  0.04665325  0.23592079  0.17639612    -0.79000
Cd51       Cd  0.11611519  0.24606164  0.16115592     1.59700
Cd52       Cd  0.12687107  0.15389334  0.14620255     1.59600
O53         O  0.12730034  0.24530304  0.11212020    -0.79000
O54         O  0.10915643  0.19065505  0.17834290    -1.89500
Cd55       Cd  0.06716146  0.18055769  0.18170973     1.59900
O56         O  0.15009313  0.18675404  0.11354855    -0.79000
O57         O  0.05746785  0.16685963  0.23105353    -0.77600
C58         C  0.16447035  0.11198152  0.19689644     0.84900
C59         C  0.16690339  0.25539680  0.20817913     0.84600
O60         O  0.09920824  0.17769023  0.25681020    -0.76600
C61         C  0.05444135  0.27259483  0.17360980     0.85400
O62         O  0.15467890  0.13511441  0.21921864    -0.76700
C63         C  0.14633589  0.22131735  0.10121510     0.85500
C64         C  0.06861967  0.12157899  0.12131419     0.85800
O65         O  0.09579081  0.12508562  0.11955621    -0.79100
N66         N  0.24055161  0.98741498  0.23593834    -0.01600
C67         C  0.26740565  0.97305084  0.23141382     0.01000
C68         C  0.27064885  0.93740727  0.24825665    -0.21900
C69         C  0.24529668  0.93059700  0.26459830    -0.22100
C70         C  0.22735740  0.96215223  0.25697004     0.00900
H71         H  0.29233820  0.43239080  0.26795776     0.14700
H72         H  0.24171823  0.90807404  0.28316987     0.14700
C73         C  0.05598753  0.14786723  0.34499237     0.82100
N74         N  0.06888350  0.14762109  0.31490522    -0.76200
C75         C  0.05760344  0.16862762  0.28956022     0.84500
N76         N  0.03421768  0.19187030  0.29496862    -0.76200
C77         C  0.02151570  0.19342103  0.32492338     0.84600
N78         N  0.03216764  0.17096638  0.34999397    -0.77900
O79         O  0.95343496  0.31764351  0.24477405    -0.76600
C80         C  0.88978814  0.23043546  0.28924923     0.84400
O81         O  0.89323007  0.37666020  0.33175455    -0.77700
O82         O  0.92163685  0.24786193  0.38885965    -0.79200
O83         O  0.00564938  0.26039060  0.32595778    -0.79000
O84         O  0.99440489  0.32934646  0.27179597    -0.77600
Zn85       Zn  0.92347081  0.30776790  0.28048174     1.55700
O86         O  0.97318934  0.21239202  0.33602485    -0.79000
Cd87       Cd  0.98371064  0.31457962  0.32049188     1.59700
Cd88       Cd  0.92263691  0.33919768  0.35425041     1.59600
O89         O  0.99539332  0.35683995  0.35807566    -0.79000
O90         O  0.94179925  0.30245737  0.32292832    -1.89500
Cd91       Cd  0.93611007  0.24697948  0.34084824     1.59900
O92         O  0.95291725  0.36930393  0.38175027    -0.79000
O93         O  0.90148164  0.22175706  0.31645763    -0.77600
C94         C  0.88315810  0.37578800  0.30275838     0.84900
C95         C  0.98024940  0.32590316  0.24502596     0.84600
O96         O  0.89902755  0.25882003  0.27120913    -0.76600
C97         C  0.99890018  0.22355721  0.33017700     0.85400
O98         O  0.89345674  0.35212769  0.28107700    -0.76700
C99         C  0.98012037  0.37343799  0.38064617     0.85500
C100        C  0.90199927  0.27161419  0.39868425     0.85800
O101        O  0.89841969  0.30607555  0.38611362    -0.79100
N102        N  0.80002013  0.48759224  0.25880834    -0.01600
C103        C  0.77220236  0.49911789  0.25921610     0.01000
C104        C  0.76854518  0.53254786  0.23965109    -0.21900
C105        C  0.79473973  0.54074912  0.22576126    -0.22100
C106        C  0.81346994  0.51222290  0.23749356     0.00900
H107        H  0.74848250  0.54685528  0.23362527     0.14700
H108        H  0.79872375  0.56171429  0.20617166     0.14700
C109        C  0.99339099  0.39684801  0.40776137     0.82100
N110        N  0.98050595  0.39602760  0.43783087    -0.76200
C111        C  0.99142082  0.41753457  0.46331666     0.84500
N112        N  0.01426228  0.44177674  0.45817593    -0.76200
C113        C  0.02690664  0.44396166  0.42832522     0.84600
N114        N  0.01673950  0.42104933  0.40298758    -0.77900
O115        O  0.09960398  0.06378134  0.50593684    -0.76600
C116        C  0.15933358  0.97605234  0.45303701     0.84400
O117        O  0.15870881  0.12442307  0.41858640    -0.77700
O118        O  0.12248527  0.00119685  0.35604022    -0.79200
O119        O  0.04356297  0.01193833  0.42638884    -0.79000
O120        O  0.05841352  0.07995833  0.48116626    -0.77600
Zn121      Zn  0.12765588  0.05288614  0.46790361     1.55700
O122        O  0.07491429  0.46445111  0.41753881    -0.79000
Cd123      Cd  0.06660656  0.06550376  0.43142527     1.59700
Cd124      Cd  0.12724961  0.08943523  0.39583091     1.59600
O125        O  0.05456646  0.10789610  0.39439241    -0.79000
O126        O  0.10793786  0.05183850  0.42621070    -1.89500
Cd127      Cd  0.11156233  0.99755471  0.40506183     1.59900
O128        O  0.09678458  0.12100582  0.37030434    -0.79000
O129        O  0.14761121  0.97082440  0.42518808    -0.77600
C130        C  0.17029343  0.11895520  0.44648216     0.84900
C131        C  0.07320393  0.07427019  0.50722750     0.84600
O132        O  0.14975492  0.00134491  0.47391622    -0.76600
C133        C  0.04913151  0.47481081  0.42381410     0.85400
O134        O  0.16006789  0.09378619  0.46685231    -0.76700
C135        C  0.06958062  0.12478482  0.37182968     0.85500
C136        C  0.14322258  0.02336807  0.34686912     0.85800
O137        O  0.14905517  0.05630685  0.36137437    -0.79100
N138        N  0.24482333  0.24897181  0.99125164    -0.01600
C139        C  0.27296056  0.25891423  0.98944797     0.01000
C140        C  0.27801115  0.29384710  0.00708005    -0.21900
C141        C  0.25249664  0.30445219  0.02152037    -0.22100
C142        C  0.23268480  0.27581319  0.01204081     0.00900
H143        H  0.29874492  0.30735126  0.01208775     0.14700
H144        H  0.24979311  0.32693481  0.04057481     0.14700
C145        C  0.49443550  0.34611419  0.09865104     0.82100
N146        N  0.51825820  0.32305588  0.10314516    -0.76200
C147        C  0.52866758  0.30052157  0.07779132     0.84500
N148        N  0.51559325  0.30162705  0.04814761    -0.76200
C149        C  0.49210430  0.32466731  0.04328070     0.84600
N150        N  0.48109117  0.34593703  0.06886143    -0.77900
O151        O  0.59550935  0.17697555  0.99944161    -0.76600
C152        C  0.66326900  0.25476982  0.05093372     0.84400
O153        O  0.65422902  0.11503051  0.08572516    -0.77700
O154        O  0.61898032  0.24118379  0.14554183    -0.79200
O155        O  0.54285654  0.23306462  0.08027449    -0.79000
O156        O  0.55416250  0.16326023  0.02539936    -0.77600
Zn157      Zn  0.62486410  0.18422773  0.03565939     1.55700
O158        O  0.57672259  0.28017280  0.08738474    -0.79000
Cd159      Cd  0.56346074  0.17778108  0.07465297     1.59700
Cd160      Cd  0.62324452  0.15090908  0.10750549     1.59600
O161        O  0.55075577  0.13638824  0.11252967    -0.79000
O162        O  0.60524263  0.18854035  0.07719884    -1.89500
Cd163      Cd  0.61162850  0.24327729  0.09601213     1.59900
O164        O  0.59327635  0.11961058  0.13368216    -0.79000
O165        O  0.65059370  0.26317836  0.07774870    -0.77600
C166        C  0.66353567  0.11459893  0.05638005     0.84900
C167        C  0.56883940  0.16788933  0.99904807     0.84600
O168        O  0.65210705  0.23130894  0.02961036    -0.76600
C169        C  0.55065243  0.26979780  0.08286858     0.85400
O170        O  0.65283940  0.13766759  0.03482956    -0.76700
C171        C  0.56600452  0.11791926  0.13396232     0.85500
C172        C  0.63669684  0.21622840  0.15736758     0.85800
O173        O  0.64293629  0.18365849  0.14259749    -0.79100
N174        N  0.74837002  0.00105780  0.51436758    -0.01600
C175        C  0.77450470  0.98841546  0.02041891     0.01000
C176        C  0.78186504  0.95511505  0.50210378    -0.21900
C177        C  0.75778805  0.94615378  0.48403203    -0.22100
C178        C  0.73769735  0.97508252  0.49188687     0.00900
H179        H  0.80078282  0.43641407  0.49545163     0.14700
H180        H  0.75620876  0.92381056  0.46494298     0.14700
C181        C  0.55292906  0.09534800  0.16155349     0.82100
N182        N  0.56678484  0.09541090  0.19111869    -0.76200
C183        C  0.55627274  0.07412880  0.21684653     0.84500
N184        N  0.53270849  0.05084684  0.21223601    -0.76200
C185        C  0.51906690  0.04948496  0.18284751     0.84600
N186        N  0.52901053  0.07212141  0.15745646    -0.77900
O187        O  0.45113710  0.42485145  0.26191523    -0.76600
C188        C  0.38468885  0.50364035  0.21317480     0.84400
O189        O  0.39507031  0.35879123  0.17561592    -0.77700
O190        O  0.42139136  0.48822750  0.11645457    -0.79200
O191        O  0.50378113  0.48142902  0.18169720    -0.79000
O192        O  0.49249222  0.41163594  0.23599045    -0.77600
Zn193      Zn  0.42214806  0.43081382  0.22541949     1.55700
O194        O  0.47069719  0.52793176  0.17011331    -0.79000
Cd195      Cd  0.48294222  0.42625478  0.18690148     1.59700
Cd196      Cd  0.42284064  0.39861284  0.15295425     1.59600
O197        O  0.49568392  0.38506219  0.14892659    -0.79000
O198        O  0.44107240  0.43662821  0.18363855    -1.89500
Cd199      Cd  0.43440374  0.49139982  0.16486497     1.59900
O200        O  0.45357150  0.37105506  0.12504905    -0.79000
O201        O  0.39763285  0.51410907  0.18706127    -0.77600
C202        C  0.38575874  0.35833155  0.20495421     0.84900
C203        C  0.47780259  0.41612232  0.26236591     0.84600
O204        O  0.39453573  0.47644994  0.23192520    -0.76600
C205        C  0.49650021  0.51789047  0.17670007     0.85400
O206        O  0.39537125  0.38300300  0.22620252    -0.76700
C207        C  0.48080534  0.36834102  0.12607035     0.85500
C208        C  0.40140361  0.46429221  0.10785960     0.85800
O209        O  0.39795913  0.43039246  0.12145546    -0.79100
N210        N  0.30565655  0.23815575  0.24528011    -0.01600
C211        C  0.27852571  0.22578764  0.23920262     0.01000
C212        C  0.27328411  0.18989217  0.25509307    -0.21900
C213        C  0.29765461  0.18084700  0.27247928    -0.22100
C214        C  0.31702347  0.21130467  0.26634381     0.00900
H215        H  0.25289674  0.17456721  0.25692589     0.14700
H216        H  0.29973777  0.15736157  0.29050892     0.14700
C217        C  0.55586935  0.14457904  0.41105638     0.82100
N218        N  0.56827359  0.14417634  0.44134621    -0.76200
C219        C  0.55699506  0.16606908  0.46642295     0.84500
N220        N  0.53441526  0.19044154  0.46052558    -0.76200
C221        C  0.52237358  0.19208246  0.43034163     0.84600
N222        N  0.53274934  0.16862523  0.40558236    -0.77900
O223        O  0.39997016  0.24950639  0.48092998    -0.76600
C224        C  0.47814679  0.32189356  0.51138010     0.84400
O225        O  0.39302698  0.37163441  0.42676603    -0.77700
O226        O  0.49489055  0.35409028  0.39919967    -0.79200
O227        O  0.47513303  0.21071133  0.41592241    -0.79000
O228        O  0.40430308  0.21511635  0.43404869    -0.77600
Zn229      Zn  0.42300831  0.30033194  0.47462809     1.55700
O230        O  0.50596921  0.25868526  0.43150600    -0.79000
Cd231      Cd  0.43798652  0.24393913  0.41149085     1.59700
Cd232      Cd  0.42212946  0.33501602  0.40208898     1.59600
O233        O  0.42454633  0.24639443  0.36338952    -0.79000
O234        O  0.44180725  0.29830691  0.43232222    -1.89500
Cd235      Cd  0.48315868  0.31216340  0.43624734     1.59900
O236        O  0.39807304  0.30133884  0.36969833    -0.79000
O237        O  0.49226885  0.32828701  0.48497925    -0.77600
C238        C  0.38301754  0.36977710  0.45583194     0.84900
C239        C  0.39222556  0.22133603  0.46154495     0.84600
O240        O  0.45206116  0.31004233  0.51102796    -0.76600
C241        C  0.50004826  0.22208557  0.42477196     0.85400
O242        O  0.39295255  0.34454355  0.47624965    -0.76700
C243        C  0.40329925  0.26810648  0.35530585     0.85500
C244        C  0.47976271  0.37032494  0.37657998     0.85800
O245        O  0.45256276  0.36582967  0.37511708    -0.79100
N246        N  0.29942438  0.48735624  0.00014989    -0.01600
C247        C  0.27233794  0.50043013  0.99483607     0.01000
C248        C  0.26734293  0.53525944  0.01255803    -0.21900
C249        C  0.29182704  0.54327565  0.03002884    -0.22100
C250        C  0.31101683  0.51324179  0.02214183     0.00900
H251        H  0.24698232  0.55104289  0.01490451     0.14700
H252        H  0.29433735  0.56608443  0.04885266     0.14700
C253        C  0.49341903  0.39357157  0.34983807     0.82100
N254        N  0.51727868  0.41671053  0.35493613    -0.76200
C255        C  0.52820529  0.43898357  0.32983201     0.84500
N256        N  0.51572176  0.43723943  0.29985014    -0.76200
C257        C  0.49234414  0.41401313  0.29439822     0.84600
N258        N  0.48075684  0.39318564  0.31970365    -0.77900
O259        O  0.65025071  0.00284765  0.27905235    -0.76600
C260        C  0.57154331  0.07225128  0.24875660     0.84400
O261        O  0.65681767  0.12582403  0.33578128    -0.77700
O262        O  0.55450655  0.10450371  0.36164314    -0.79200
O263        O  0.57623096  0.45914333  0.34173410    -0.79000
O264        O  0.64825689  0.97039125  0.32672688    -0.77600
Zn265      Zn  0.62733377  0.05336463  0.28623555     1.55700
O266        O  0.54434208  0.00828988  0.33012418    -0.79000
Cd267      Cd  0.61289125  0.99594177  0.34904008     1.59700
Cd268      Cd  0.62711643  0.08849857  0.35847167     1.59600
O269        O  0.62712785  0.99933087  0.39708919    -0.79000
O270        O  0.60814410  0.05020466  0.32832364    -1.89500
Cd271      Cd  0.56652449  0.06227805  0.32442764     1.59900
O272        O  0.65099770  0.05659763  0.39103513    -0.79000
O273        O  0.55702185  0.07641373  0.27526573    -0.77600
C274        C  0.66852197  0.12158242  0.30775719     0.84900
C275        C  0.66008272  0.97719347  0.29920561     0.84600
O276        O  0.59828695  0.06345492  0.24915342    -0.76600
C277        C  0.55056371  0.46959360  0.33498312     0.85400
O278        O  0.65911855  0.09592528  0.28703024    -0.76700
C279        C  0.64740045  0.02307354  0.40518911     0.85500
C280        C  0.56950631  0.12143848  0.38425626     0.85800
O281        O  0.59670998  0.11813244  0.38553854    -0.79100
N282        N  0.75167133  0.21921469  0.24802549    -0.01600
C283        C  0.77987455  0.22519278  0.24072060     0.01000
C284        C  0.78241628  0.25120352  0.21447630    -0.21900
C285        C  0.75526806  0.26045366  0.20447644    -0.22100
C286        C  0.73690409  0.24008387  0.22498167     0.00900
H287        H  0.80205724  0.26174993  0.20330347     0.14700
H288        H  0.74959169  0.27830447  0.18339063     0.14700
C289        C  0.69368064  0.18809987  0.30436593     0.25500
C290        C  0.69393674  0.14642603  0.29915601    -0.22600
C291        C  0.71844242  0.12879753  0.28468850     0.20400
C292        C  0.74077763  0.15293471  0.27236979     0.25400
C293        C  0.73814667  0.19500160  0.27304834    -0.22600
C294        C  0.71561618  0.21212418  0.29148580     0.20300
F295        F  0.71309648  0.25266672  0.29347023    -0.12500
F296        F  0.67083742  0.20595604  0.31908054    -0.14900
F297        F  0.76234963  0.13545830  0.25510807    -0.14900
F298        F  0.71998154  0.08833062  0.28080333    -0.12500
C299        C  0.32301787  0.41922231  0.50589674     0.25500
C300        C  0.31535705  0.45150451  0.48576599    -0.22600
C301        C  0.32815298  0.45466161  0.45484071     0.20400
C302        C  0.34953797  0.42777883  0.44484310     0.25400
C303        C  0.35898141  0.39703609  0.46586696    -0.22600
C304        C  0.34475690  0.39243288  0.49626024     0.20300
F305        F  0.35215372  0.36256354  0.51707991    -0.12500
F306        F  0.31008429  0.41439844  0.53535857    -0.14900
F307        F  0.36181115  0.43321058  0.41504733    -0.14900
F308        F  0.32141573  0.48599792  0.43524011    -0.12500
C309        C  0.36946659  0.21955814  0.28024208     0.25500
C310        C  0.34037139  0.22168880  0.28900059    -0.22600
C311        C  0.33245455  0.23863118  0.31915180     0.20400
C312        C  0.35307231  0.25508229  0.33969509     0.25400
C313        C  0.38228806  0.25275683  0.33149476    -0.22600
C314        C  0.39051168  0.23414849  0.30189878     0.20300
F315        F  0.41865223  0.23145306  0.29355743    -0.12500
F316        F  0.37733748  0.20373344  0.25090514    -0.14900
F317        F  0.34437979  0.27319111  0.36785113    -0.14900
F318        F  0.30435401  0.24124863  0.32790115    -0.12500
C319        C  0.38608145  0.49814834  0.05568326     0.25500
C320        C  0.37942230  0.47721952  0.08454930    -0.22600
C321        C  0.35059825  0.46953532  0.09250425     0.20400
C322        C  0.32879058  0.48311854  0.07247408     0.25400
C323        C  0.33525544  0.50286599  0.04324439    -0.22600
C324        C  0.36393878  0.51028283  0.03464796     0.20300
F325        F  0.37035430  0.52920997  0.00624195    -0.12500
F326        F  0.41380751  0.50579615  0.04757138    -0.14900
F327        F  0.30108671  0.47602701  0.08121165    -0.14900
F328        F  0.34340238  0.44956675  0.12024512    -0.12500
C329        C  0.35418413  0.29841100  0.19282321     0.25500
C330        C  0.36265959  0.32948215  0.21436697    -0.22600
C331        C  0.34804221  0.33338005  0.24461175     0.20400
C332        C  0.32694201  0.30552369  0.25372079     0.25400
C333        C  0.32021432  0.27311134  0.23307179    -0.22600
C334        C  0.33330398  0.27055794  0.20224042     0.20300
F335        F  0.32718739  0.23915734  0.18209605    -0.12500
F336        F  0.36681232  0.29381266  0.16307487    -0.14900
F337        F  0.31368263  0.30947811  0.28312168    -0.14900
F338        F  0.35426843  0.36385068  0.26566068    -0.12500
C339        C  0.72000896  0.00654226  0.44198345     0.25500
C340        C  0.71359654  0.98502413  0.47037349    -0.22600
C341        C  0.68498520  0.97576016  0.47800323     0.20400
C342        C  0.66287226  0.98782366  0.45686524     0.25400
C343        C  0.66940114  0.01045121  0.42879167    -0.22600
C344        C  0.69819428  0.01991443  0.42182023     0.20300
F345        F  0.70544027  0.04141728  0.39488289    -0.12500
F346        F  0.74765574  0.01540538  0.43412810    -0.14900
F347        F  0.63525871  0.97835764  0.46414462    -0.14900
F348        F  0.67660254  0.45379613  0.50383716    -0.12500
C349        C  0.66364957  0.26460040  0.19238720     0.25500
C350        C  0.65313267  0.22553437  0.18699656    -0.22600
C351        C  0.66643230  0.19311860  0.20251411     0.20400
C352        C  0.69377901  0.19785961  0.21495795     0.25400
C353        C  0.70589558  0.23630694  0.21824509    -0.22600
C354        C  0.68975800  0.26999401  0.20876296     0.20300
F355        F  0.70083232  0.30756378  0.21179944    -0.12500
F356        F  0.65089915  0.29671796  0.17819388    -0.14900
F357        F  0.70991643  0.16434231  0.21772601    -0.14900
F358        F  0.65569757  0.15529164  0.19944786    -0.12500
C359        C  0.70421798  0.09456925  0.01873053     0.25500
C360        C  0.68780053  0.08757743  0.04728097    -0.22600
C361        C  0.69535693  0.05497308  0.06736152     0.20400
C362        C  0.71714358  0.02849631  0.05783252     0.25400
C363        C  0.73204556  0.03406856  0.02839599    -0.22600
C364        C  0.72624495  0.06814271  0.00955792     0.20300
F365        F  0.74223682  0.07572693  0.48161265    -0.12500
F366        F  0.69883474  0.12670502  0.99940228    -0.14900
F367        F  0.72239415  0.99548638  0.07618787    -0.14900
F368        F  0.68076831  0.04735961  0.09543760    -0.12500
C369        C  0.34110630  0.20971758  0.45056917     0.25500
C370        C  0.36548377  0.20011720  0.46916810    -0.22600
C371        C  0.34417329  0.21176129  0.99818510     0.20400
C372        C  0.31516855  0.21889407  0.00471658     0.25400
C373        C  0.31057046  0.19202057  0.49620807    -0.22600
C374        C  0.31370798  0.20623796  0.46419262     0.20300
F375        F  0.29115187  0.22296605  0.44832733    -0.12500
F376        F  0.34407806  0.22865683  0.42148812    -0.14900
F377        F  0.30598805  0.21863086  0.03628534    -0.17300
F378        F  0.36238833  0.20512253  0.02349131    -0.12500
C379        C  0.19871802  0.18286823  0.45213873     0.25500
C380        C  0.19684718  0.14102539  0.45546171    -0.22600
C381        C  0.22017058  0.12023382  0.46933511     0.20400
C382        C  0.22740253  0.17858155  0.99261530     0.25400
C383        C  0.24305751  0.18345768  0.48399206    -0.22600
C384        C  0.22161807  0.20392366  0.46644432     0.20300
F385        F  0.22132013  0.24467278  0.46635672    -0.12500
F386        F  0.17707759  0.20366171  0.43790867    -0.14900
F387        F  0.24470833  0.17031788  0.01836150    -0.14900
F388        F  0.20475708  0.11510521  0.99907712    -0.12500
C389        C  0.20072141  0.45885913  0.49369441     0.25500
C390        C  0.18736426  0.95759653  0.45998110    -0.22600
C391        C  0.21164420  0.97230565  0.94312153     0.20400
C392        C  0.23980105  0.48573506  0.94822782     0.25400
C393        C  0.24978949  0.47659595  0.47892969    -0.22600
C394        C  0.22997957  0.46042648  0.50135683     0.20300
F395        F  0.23834053  0.45238206  0.53246458    -0.12500
F396        F  0.18149571  0.44915386  0.51736986    -0.14900
F397        F  0.26145032  0.98819129  0.94080628    -0.14900
F398        F  0.20823901  0.98965152  0.91344861    -0.12500
C399        C  0.72717121  0.46266112  0.24835217     0.25500
C400        C  0.74753493  0.47590469  0.27145272    -0.22600
C401        C  0.73994643  0.47754583  0.30456028     0.20400
C402        C  0.71133693  0.97227209  0.31351717     0.25400
C403        C  0.68995033  0.46516695  0.28979709    -0.22600
C404        C  0.69844771  0.45792426  0.25736175     0.20300
F405        F  0.67850004  0.45096559  0.23379368    -0.12500
F406        F  0.73441100  0.45969053  0.21620964    -0.14900
F407        F  0.70550947  0.98575263  0.34420954    -0.14900
F408        F  0.75975232  0.99395149  0.32028014    -0.12500
C409        C  0.85372578  0.43828729  0.31142213     0.25500
C410        C  0.85846084  0.40210822  0.29428257    -0.22600
C411        C  0.83899465  0.39108871  0.26927095     0.20400
C412        C  0.81689165  0.41725750  0.25991937     0.25400
C413        C  0.81404870  0.45490135  0.27515737    -0.22600
C414        C  0.83187733  0.46439011  0.30174755     0.20300
F415        F  0.82955200  0.50082103  0.31656789    -0.12500
F416        F  0.87135665  0.44974729  0.33621174    -0.14900
F417        F  0.79938166  0.40691111  0.23475472    -0.14900
F418        F  0.84155268  0.35523272  0.25355125    -0.12500
C419        C  0.83883523  0.21535656  0.30196046     0.25500
C420        C  0.86223064  0.21156506  0.28024709    -0.22600
C421        C  0.85703469  0.20006982  0.24777880     0.20400
C422        C  0.82887852  0.19701889  0.23634415     0.25400
C423        C  0.80562431  0.20814077  0.25663351    -0.22600
C424        C  0.81060181  0.21440619  0.29010452     0.20300
F425        F  0.78877165  0.22511984  0.31035243    -0.12500
F426        F  0.84334744  0.22587474  0.33364294    -0.14900
F427        F  0.82449647  0.18840034  0.20419255    -0.14900
F428        F  0.87916598  0.19565663  0.22640259    -0.12500
C429        C  0.30419577  0.99133841  0.18960963     0.25500
C430        C  0.29253953  0.99667992  0.22092134    -0.22600
C431        C  0.30957929  0.01401082  0.24568622     0.20400
C432        C  0.34571447  0.52066600  0.25235643     0.25400
C433        C  0.35520952  0.51802510  0.21983313    -0.22600
C434        C  0.33456534  0.51610394  0.19456281     0.20300
F435        F  0.34298596  0.51471713  0.16278614    -0.12500
F436        F  0.28818247  0.97430078  0.16549736    -0.14900
F437        F  0.36493790  0.52329908  0.27723642    -0.14900
F438        F  0.29862847  0.01939824  0.27621886    -0.12500
C439        C  0.17509883  0.97389901  0.27096349     0.25500
C440        C  0.20435769  0.97567311  0.27905387    -0.22600
C441        C  0.21296743  0.99418794  0.30829988     0.20400
C442        C  0.19288281  0.01140056  0.32905487     0.25400
C443        C  0.16348134  0.00858672  0.32198552    -0.22600
C444        C  0.15455476  0.98951611  0.29285518     0.20300
F445        F  0.12623819  0.98700871  0.28533697    -0.12500
F446        F  0.17043931  0.44278397  0.26047955    -0.14900
F447        F  0.20227648  0.03009175  0.35665487    -0.14900
F448        F  0.24121739  0.99658135  0.31635632    -0.12500
C449        C  0.15914929  0.25903675  0.04977080     0.25500
C450        C  0.16702050  0.23492856  0.07652352    -0.22600
C451        C  0.19602818  0.22530528  0.08137178     0.20400
C452        C  0.21686279  0.24043726  0.06073214     0.25400
C453        C  0.20920876  0.26390946  0.03380990    -0.22600
C454        C  0.18028432  0.27291762  0.02798272     0.20300
F455        F  0.17267332  0.29493443  0.00155477    -0.12500
F456        F  0.13118268  0.26821657  0.04441708    -0.14900
F457        F  0.24484915  0.23183886  0.06690382    -0.14900
F458        F  0.20447599  0.20211252  0.10684020    -0.12500
C459        C  0.22436329  0.05766478  0.24217206     0.25500
C460        C  0.22770034  0.02307066  0.22285371    -0.22600
C461        C  0.21220878  0.01954369  0.19359186     0.20400
C462        C  0.19226468  0.04881064  0.18464250     0.25400
C463        C  0.18714031  0.08220846  0.20516718    -0.22600
C464        C  0.20421237  0.08698537  0.23351767     0.20300
F465        F  0.20120399  0.11973101  0.25316104    -0.12500
F466        F  0.23965993  0.06208075  0.27017321    -0.14900
F467        F  0.17688983  0.04315224  0.15678436    -0.14900
F468        F  0.21488615  0.98589877  0.17492774    -0.12500
C469        C  0.21697178  0.26022618  0.18815562     0.25500
C470        C  0.19702045  0.26770576  0.21348178    -0.22600
C471        C  0.20721027  0.27338817  0.24544986     0.20400
C472        C  0.23606471  0.26624905  0.25262568     0.25400
C473        C  0.25472499  0.25154092  0.22825682    -0.22600
C474        C  0.24559225  0.25100831  0.19563184     0.20300
F475        F  0.26323052  0.23700660  0.17170141    -0.12500
F476        F  0.20784309  0.25565454  0.15685721    -0.14900
F477        F  0.24480431  0.26785842  0.28431017    -0.14900
F478        F  0.18861973  0.28115599  0.27029890    -0.12500
C479        C  0.74271984  0.24951323  0.06142058     0.25500
C480        C  0.75171526  0.25671545  0.02925827    -0.22600
C481        C  0.73239922  0.27449396  0.00719216     0.20400
C482        C  0.70339102  0.27869022  0.01542840     0.25400
C483        C  0.69357753  0.26678356  0.04634407    -0.22600
C484        C  0.71385119  0.25522862  0.07014391     0.20300
F485        F  0.70503076  0.24361758  0.10034327    -0.12500
F486        F  0.76155761  0.22947214  0.58336274    -0.14900
F487        F  0.68443087  0.29029021  0.99213286    -0.14900
F488        F  0.74074251  0.28190350  0.97593417    -0.12500
C489        C  0.86638466  0.22694517  0.47375491     0.25500
C490        C  0.83747995  0.22895532  0.46418680    -0.22600
C491        C  0.83027031  0.24563956  0.43389114     0.20400
C492        C  0.85148788  0.26062434  0.41348513     0.25400
C493        C  0.88050254  0.25760475  0.42226336    -0.22600
C494        C  0.88798155  0.24048692  0.45244655     0.20300
F495        F  0.91591131  0.23828379  0.46164145    -0.12500
F496        F  0.87354730  0.21221290  0.50352947    -0.14900
F497        F  0.84363359  0.27791635  0.38484840    -0.14900
F498        F  0.80236147  0.24898165  0.42466304    -0.12500
C499        C  0.85436261  0.45785209  0.17298591     0.25500
C500        C  0.88275647  0.47079126  0.17815662    -0.22600
C501        C  0.88880091  0.49733718  0.20427767     0.20400
C502        C  0.86649564  0.51091175  0.22467732     0.25400
C503        C  0.83822725  0.49874257  0.21832038    -0.22600
C504        C  0.83240365  0.47228802  0.19246202     0.20300
F505        F  0.80499623  0.46113574  0.18550123    -0.12500
F506        F  0.84734826  0.43305696  0.14768831    -0.14900
F507        F  0.87230609  0.53620604  0.24997070    -0.14900
F508        F  0.91605508  0.51006845  0.20989116    -0.12500
C509        C  0.85523690  0.29843984  0.06149424     0.25500
C510        C  0.86248060  0.33184379  0.04205593    -0.22600
C511        C  0.84612930  0.33891054  0.01347304     0.20400
C512        C  0.82413419  0.31241780  0.00407063     0.25400
C513        C  0.81794178  0.27841152  0.02288694    -0.22600
C514        C  0.83323944  0.27219726  0.05194082     0.20300
F515        F  0.82825944  0.23864898  0.06978459    -0.12500
F516        F  0.87020479  0.28995085  0.08907763    -0.14900
F517        F  0.81045348  0.31722716  0.47565701    -0.14900
F518        F  0.85161497  0.37107917  0.99418277    -0.12500
C519        C  0.84577330  0.53075179  0.01549697     0.25500
C520        C  0.85524783  0.52107181  0.04702505    -0.22600
C521        C  0.83467081  0.51242987  0.07140156     0.20400
C522        C  0.80730690  0.00519803  0.06642859     0.25400
C523        C  0.79768764  0.01297481  0.03464159    -0.22600
C524        C  0.81704451  0.03378084  0.51218612     0.20300
F525        F  0.80785175  0.04217089  0.48145234    -0.12500
F526        F  0.86598213  0.53777829  0.49063782    -0.14900
F527        F  0.78972394  0.98676988  0.08821699    -0.14900
F528        F  0.84313519  0.50369447  0.10232611    -0.12500
C529        C  0.05534880  0.09822961  0.59488201     0.82100
N530        N  0.06890384  0.09825836  0.56505911    -0.76200
C531        C  0.05851104  0.07600474  0.53959165     0.84500
N532        N  0.03557558  0.05173772  0.54479885    -0.76200
C533        C  0.02236574  0.05046520  0.57447155     0.84600
N534        N  0.03200831  0.07416878  0.59948069    -0.77900
O535        O  0.89476533  0.48012848  0.53051696    -0.76600
C536        C  0.97710771  0.41871025  0.49551958     0.84400
O537        O  0.89732732  0.35653298  0.58061177    -0.77700
O538        O  0.99794375  0.38670308  0.60808744    -0.79200
O539        O  0.97157383  0.52758015  0.59301089    -0.79000
O540        O  0.89861467  0.51396315  0.57767628    -0.77600
Zn541      Zn  0.92205291  0.43335356  0.53410514     1.55700
O542        O  0.00411449  0.48254140  0.57633660    -0.79000
Cd543      Cd  0.93576504  0.48996118  0.59737158     1.59700
Cd544      Cd  0.92487162  0.39615852  0.60441399     1.59600
O545        O  0.92381472  0.48299388  0.64568811    -0.79000
O546        O  0.94197330  0.43661165  0.57541336    -1.89500
Cd547      Cd  0.98374878  0.42713149  0.57083629     1.59900
O548        O  0.90019542  0.42582151  0.63761401    -0.79000
O549        O  0.99209814  0.41294244  0.52140181    -0.77600
C550        C  0.88656754  0.35877598  0.55199891     0.84900
C551        C  0.88532822  0.50579159  0.55121862     0.84600
O552        O  0.95057914  0.42827512  0.49675104    -0.76600
C553        C  0.99699961  0.51845380  0.58395698     0.85400
O554        O  0.89489369  0.38577512  0.53216226    -0.76700
C555        C  0.90371190  0.45872230  0.65303639     0.85500
C556        C  0.98353245  0.36883168  0.63059249     0.85800
O557        O  0.95623600  0.36942121  0.63137241    -0.79100
N558        N  0.80242991  0.24500070  0.00905532    -0.01600
C559        C  0.77596782  0.23131393  0.51527324     0.01000
C560        C  0.76929892  0.19838024  0.99673244    -0.21900
C561        C  0.79331629  0.19024420  0.97834179    -0.22100
C562        C  0.81313224  0.21963021  0.98611660     0.00900
H563        H  0.74875194  0.18342136  0.99457287     0.14700
H564        H  0.79500535  0.16810310  0.95904786     0.14700
C565        C  0.99768969  0.34824753  0.65819206     0.82100
N566        N  0.98437769  0.34886391  0.68801481    -0.76200
C567        C  0.99560116  0.32885988  0.71387908     0.84500
N568        N  0.01940193  0.30615476  0.70922838    -0.76200
C569        C  0.03253795  0.30428851  0.67950769     0.84600
N570        N  0.02177262  0.32559560  0.65388762    -0.77900
O571        O  0.15498649  0.23061720  0.72904519    -0.76600
C572        C  0.07019939  0.17050441  0.75799965     0.84400
O573        O  0.15428924  0.11311741  0.67268464    -0.77700
O574        O  0.05315952  0.13974974  0.64400305    -0.79200
O575        O  0.08045454  0.28262143  0.66906862    -0.79000
O576        O  0.15362860  0.26393863  0.68179732    -0.77600
Zn577      Zn  0.12698777  0.18467570  0.72241102     1.55700
O578        O  0.04617458  0.23654934  0.67749226    -0.79000
Cd579      Cd  0.11537929  0.24455807  0.66156845     1.59700
Cd580      Cd  0.12542409  0.15126246  0.65080268     1.59600
O581        O  0.12570446  0.24074652  0.61229540    -0.79000
O582        O  0.10790541  0.19026568  0.68063429    -1.89500
Cd583      Cd  0.06594975  0.18073222  0.68250611     1.59900
O584        O  0.14754821  0.18180273  0.61701445    -0.79000
O585        O  0.05580173  0.16630516  0.73141317    -0.77600
C586        C  0.16362559  0.11232223  0.70192167     0.84900
C587        C  0.16628799  0.25438554  0.70824502     0.84600
O588        O  0.09700080  0.17878996  0.75807277    -0.76600
C589        C  0.05431274  0.27301899  0.67437656     0.85400
O590        O  0.15394353  0.13655068  0.72352718    -0.76700
C591        C  0.14291648  0.21408367  0.60153341     0.85500
C592        C  0.06839295  0.12094900  0.62251301     0.85800
O593        O  0.09563382  0.12184957  0.62313951    -0.79100
N594        N  0.24369954  0.99212055  0.74044721    -0.01600
C595        C  0.27089492  0.97934426  0.73543408     0.01000
C596        C  0.27552004  0.94410372  0.75242511    -0.21900
C597        C  0.25067114  0.93585966  0.76930119    -0.22100
C598        C  0.23163306  0.96613527  0.76175706     0.00900
H599        H  0.29191044  0.43352955  0.76849849     0.14700
H600        H  0.24800330  0.91315305  0.78791286     0.14700
C601        C  0.05332946  0.14684637  0.84490216     0.82100
N602        N  0.06615955  0.14660007  0.81483738    -0.76200
C603        C  0.05520583  0.16828281  0.78976241     0.84500
N604        N  0.03226668  0.19223936  0.79538263    -0.76200
C605        C  0.01964800  0.19375934  0.82535555     0.84600
N606        N  0.02993907  0.17065454  0.85020896    -0.77900
O607        O  0.95324489  0.31757638  0.74500422    -0.76600
C608        C  0.88927990  0.23083384  0.79055805     0.84400
O609        O  0.89271705  0.37773267  0.83075662    -0.77700
O610        O  0.92144604  0.25074707  0.89005051    -0.79200
O611        O  0.00456356  0.26101768  0.82633324    -0.79000
O612        O  0.99395469  0.33025770  0.77226114    -0.77600
Zn613      Zn  0.92307324  0.30774576  0.78054191     1.55700
O614        O  0.97180586  0.21365027  0.83708841    -0.79000
Cd615      Cd  0.98305243  0.31548998  0.82084041     1.59700
Cd616      Cd  0.92193930  0.34082033  0.85400688     1.59600
O617        O  0.99472747  0.35774441  0.85834587    -0.79000
O618        O  0.94116778  0.30366951  0.82315943    -1.89500
Cd619      Cd  0.93530082  0.24882653  0.84195085     1.59900
O620        O  0.95216125  0.37115228  0.88148306    -0.79000
O621        O  0.90058345  0.22341680  0.81820756    -0.77600
C622        C  0.88264782  0.37610163  0.80177448     0.84900
C623        C  0.97998200  0.32634825  0.74541481     0.84600
O624        O  0.89888877  0.25823041  0.77174092    -0.76600
C625        C  0.99750620  0.22434906  0.83083875     0.85400
O626        O  0.89295900  0.35191019  0.78049260    -0.76700
C627        C  0.97940818  0.37484761  0.88061414     0.85500
C628        C  0.90138670  0.27415095  0.89921782     0.85800
O629        O  0.89746595  0.30816060  0.88598377    -0.79100
N630        N  0.79895146  0.48690303  0.75744431    -0.01600
C631        C  0.77116968  0.49847212  0.75854896     0.01000
C632        C  0.76718235  0.53194458  0.73910826    -0.21900
C633        C  0.79314305  0.54016454  0.72464150    -0.22100
C634        C  0.81206610  0.51162615  0.73594286     0.00900
H635        H  0.74703154  0.54627263  0.73355939     0.14700
H636        H  0.79683448  0.56126839  0.70508420     0.14700
C637        C  0.99270756  0.39829548  0.90766391     0.82100
N638        N  0.97994045  0.39743086  0.93778946    -0.76200
C639        C  0.99095051  0.41891784  0.96323179     0.84500
N640        N  0.01375495  0.44320695  0.95798701    -0.76200
C641        C  0.02627578  0.44542613  0.92806460     0.84600
N642        N  0.01603026  0.42250247  0.90278420    -0.77900
O643        O  0.09786564  0.06460692  0.00571534    -0.76600
C644        C  0.15999555  0.98112260  0.95438852     0.84400
O645        O  0.15406983  0.13040030  0.91862288    -0.77700
O646        O  0.12381997  0.00147187  0.85797044    -0.79200
O647        O  0.04275587  0.01201673  0.92660980    -0.79000
O648        O  0.05649474  0.08012157  0.98102651    -0.77600
Zn649      Zn  0.12659737  0.05827825  0.96816132     1.55700
O650        O  0.07428424  0.46565158  0.91699939    -0.79000
Cd651      Cd  0.06517096  0.06595886  0.93155177     1.59700
Cd652      Cd  0.12543057  0.09104992  0.89576012     1.59600
O653        O  0.05238711  0.10787154  0.89473637    -0.79000
O654        O  0.10681396  0.05377738  0.92666976    -1.89500
Cd655      Cd  0.11125843  0.99881082  0.90657902     1.59900
O656        O  0.09423674  0.11985598  0.86948500    -0.79000
O657        O  0.14658063  0.97209408  0.92821657    -0.77600
C658        C  0.16401418  0.13023802  0.94772178     0.84900
C659        C  0.07131531  0.07419380  0.00699022     0.84600
O660        O  0.15243620  0.01020096  0.97294183    -0.76600
C661        C  0.04856405  0.47616321  0.92345078     0.85400
O662        O  0.15479359  0.10518196  0.96877913    -0.76700
C663        C  0.06709878  0.12393501  0.87156893     0.85500
C664        C  0.14432012  0.02421502  0.84898162     0.85800
O665        O  0.14902431  0.05794543  0.86282991    -0.79100
N666        N  0.25804225  0.20437232  0.50993692    -0.01600
C667        C  0.28656018  0.20699599  0.51633328     0.01000
C668        C  0.29116522  0.22927974  0.54460493    -0.21900
C669        C  0.26475613  0.24017524  0.55636208    -0.22100
C670        C  0.24494137  0.22422984  0.53488867     0.00900
H671        H  0.31165078  0.23688287  0.55550511     0.14700
H672        H  0.26042370  0.25654940  0.57880556     0.14700
C673        C  0.49514549  0.34600734  0.59854482     0.82100
N674        N  0.51897153  0.32295853  0.60314219    -0.76200
C675        C  0.52951470  0.30052368  0.57778578     0.84500
N676        N  0.51658790  0.30175114  0.54807500    -0.76200
C677        C  0.49312475  0.32479600  0.54312015     0.84600
N678        N  0.48196407  0.34594199  0.56866677    -0.77900
O679        O  0.59777027  0.17768600  0.49942422    -0.76600
C680        C  0.66449071  0.25564200  0.55163596     0.84400
O681        O  0.65553040  0.11558012  0.58608419    -0.77700
O682        O  0.61957476  0.24160589  0.64580904    -0.79200
O683        O  0.54402938  0.23314023  0.57983376    -0.79000
O684        O  0.55624941  0.16336152  0.52476250    -0.77600
Zn685      Zn  0.62648891  0.18510670  0.53603090     1.55700
O686        O  0.57760213  0.28051255  0.58760484    -0.79000
Cd687      Cd  0.56490482  0.17798467  0.57424904     1.59700
Cd688      Cd  0.62461123  0.15169351  0.60782184     1.59600
O689        O  0.55216379  0.13654074  0.61210183    -0.79000
O690        O  0.60656996  0.18914296  0.57735196    -1.89500
Cd691      Cd  0.61262192  0.24386693  0.59625912     1.59900
O692        O  0.59455248  0.12056038  0.63401631    -0.79000
O693        O  0.65169236  0.26395524  0.57839630    -0.77600
C694        C  0.66494218  0.11536954  0.55677574     0.84900
C695        C  0.57120331  0.16823104  0.49862530     0.84600
O696        O  0.65341951  0.23235328  0.53015423    -0.76600
C697        C  0.55161353  0.26993031  0.58280806     0.85400
O698        O  0.65444347  0.13874536  0.53534579    -0.76700
C699        C  0.56729216  0.11850853  0.63390098     0.85500
C700        C  0.63745237  0.21696185  0.65773659     0.85800
O701        O  0.64422344  0.18462336  0.64291863    -0.79100
N702        N  0.74728718  0.00042551  0.01470835    -0.01600
C703        C  0.77566216  0.98942711  0.52005235     0.01000
C704        C  0.78043074  0.95393532  0.00255338    -0.21900
C705        C  0.75627349  0.94523675  0.98453083    -0.22100
C706        C  0.73640283  0.97447648  0.99233213     0.00900
H707        H  0.80075560  0.43673393  0.99563370     0.14700
H708        H  0.75449777  0.92279720  0.96553610     0.14700
C709        C  0.55402829  0.09592191  0.66137609     0.82100
N710        N  0.56743527  0.09636764  0.69122184    -0.76200
C711        C  0.55670048  0.07503944  0.71682565     0.84500
N712        N  0.53343535  0.05129348  0.71179699    -0.76200
C713        C  0.52027500  0.04954979  0.68213248     0.84600
N714        N  0.53037319  0.07228929  0.65689428    -0.77900
O715        O  0.45082489  0.42432804  0.76145993    -0.76600
C716        C  0.38493684  0.50381251  0.71259668     0.84400
O717        O  0.39491110  0.35963385  0.67388234    -0.77700
O718        O  0.42236187  0.48951066  0.61592658    -0.79200
O719        O  0.50423292  0.48125429  0.68140147    -0.79000
O720        O  0.49245642  0.41177359  0.73593368    -0.77600
Zn721      Zn  0.42213598  0.43061449  0.72459172     1.55700
O722        O  0.47124515  0.52805113  0.67019820    -0.79000
Cd723      Cd  0.48319863  0.42621699  0.68667567     1.59700
Cd724      Cd  0.42323898  0.39924723  0.65182709     1.59600
O725        O  0.49611092  0.38480955  0.64891923    -0.79000
O726        O  0.44135030  0.43682072  0.68298777    -1.89500
Cd727      Cd  0.43487151  0.49185548  0.66452936     1.59900
O728        O  0.45417249  0.37136150  0.62443326    -0.79000
O729        O  0.39795328  0.51449652  0.68658151    -0.77600
C730        C  0.38544520  0.35882044  0.70315178     0.84900
C731        C  0.47754296  0.41593014  0.76218674     0.84600
O732        O  0.39467842  0.47635390  0.73115217    -0.76600
C733        C  0.49703910  0.51779331  0.67659178     0.85400
O734        O  0.39509572  0.38302085  0.72474513    -0.76700
C735        C  0.48137560  0.36829098  0.62584672     0.85500
C736        C  0.40252862  0.46564666  0.60679415     0.85800
O737        O  0.39897287  0.43153126  0.62000150    -0.79100
N738        N  0.30606159  0.23781645  0.74325109    -0.01600
C739        C  0.27918671  0.22445876  0.73714491     0.01000
C740        C  0.27451229  0.18855119  0.75321981    -0.21900
C741        C  0.29901738  0.18044212  0.77068821    -0.22100
C742        C  0.31786977  0.21148612  0.76443682     0.00900
H743        H  0.25436991  0.17256255  0.75508103     0.14700
H744        H  0.30144978  0.15722118  0.78889593     0.14700
C745        C  0.55315889  0.14456219  0.91155495     0.82100
N746        N  0.56576722  0.14441639  0.94171197    -0.76200
C747        C  0.55422712  0.16547195  0.96706625     0.84500
N748        N  0.53093151  0.18871897  0.96164961    -0.76200
C749        C  0.51853257  0.19012338  0.93161603     0.84600
N750        N  0.52942877  0.16765418  0.90647092    -0.77900
O751        O  0.39523271  0.25489855  0.98193641    -0.76600
C752        C  0.47695204  0.32177185  0.01160584     0.84400
O753        O  0.39132916  0.37331674  0.92625355    -0.77700
O754        O  0.49371063  0.35355506  0.89912759    -0.79200
O755        O  0.47056527  0.20934282  0.91997380    -0.79000
O756        O  0.39751708  0.22146560  0.93455064    -0.77600
Zn757      Zn  0.42121195  0.30291221  0.97523609     1.55700
O758        O  0.50312333  0.25717520  0.93073658    -0.79000
Cd759      Cd  0.43434201  0.24466590  0.91360109     1.59700
Cd760      Cd  0.42072109  0.33637767  0.90212937     1.59600
O761        O  0.42283056  0.24666818  0.86481931    -0.79000
O762        O  0.43979784  0.29949041  0.93284048    -1.89500
Cd763      Cd  0.48144656  0.31160977  0.93616516     1.59900
O764        O  0.39725874  0.30271009  0.86925190    -0.79000
O765        O  0.49110608  0.32706764  0.98503290    -0.77600
C766        C  0.38216259  0.37276410  0.95572651     0.84900
C767        C  0.38484403  0.22979714  0.96137755     0.84600
O768        O  0.45056321  0.31127071  0.01153266    -0.76600
C769        C  0.49620822  0.22037092  0.92628970     0.85400
O770        O  0.39271885  0.34862147  0.97656108    -0.76700
C771        C  0.40229227  0.26899910  0.85552030     0.85500
C772        C  0.47877169  0.37053251  0.87668554     0.85800
O773        O  0.45150412  0.36687997  0.87536317    -0.79100
N774        N  0.30082743  0.48626120  0.49886098    -0.01600
C775        C  0.27390892  0.49965682  0.49288709     0.01000
C776        C  0.26920316  0.53543892  0.50939417    -0.21900
C777        C  0.29368782  0.54387407  0.52671849    -0.22100
C778        C  0.31260649  0.51311026  0.51997265     0.00900
H779        H  0.24900106  0.55175821  0.51104566     0.14700
H780        H  0.29637541  0.56763293  0.54471540     0.14700
C781        C  0.49267320  0.39362028  0.84992567     0.82100
N782        N  0.51653371  0.41676514  0.85511755    -0.76200
C783        C  0.52760561  0.43897096  0.83002817     0.84500
N784        N  0.51526492  0.43712365  0.79996473    -0.76200
C785        C  0.49188997  0.41391557  0.79439488     0.84600
N786        N  0.48015757  0.39318424  0.81969038    -0.77900
O787        O  0.65014163  0.00543269  0.77949466    -0.76600
C788        C  0.57152837  0.07346422  0.74904355     0.84400
O789        O  0.65575690  0.12741708  0.83809484    -0.77700
O790        O  0.55267872  0.10485040  0.86178885    -0.79200
O791        O  0.57564554  0.45906908  0.84222609    -0.79000
O792        O  0.64872555  0.97242065  0.82689244    -0.77600
Zn793      Zn  0.62694859  0.05545055  0.78735595     1.55700
O794        O  0.54408375  0.00841610  0.83022579    -0.79000
Cd795      Cd  0.61278898  0.99689326  0.84915991     1.59700
Cd796      Cd  0.62567009  0.08984945  0.86000057     1.59600
O797        O  0.62625419  0.99965470  0.89746693    -0.79000
O798        O  0.60744598  0.05149573  0.82920128    -1.89500
Cd799      Cd  0.56570788  0.06285970  0.82471620     1.59900
O800        O  0.64921549  0.05789174  0.89299271    -0.79000
O801        O  0.55656714  0.07671267  0.77532590    -0.77600
C802        C  0.66778659  0.12330202  0.81023037     0.84900
C803        C  0.66032578  0.97969590  0.79931660     0.84600
O804        O  0.59841351  0.06570474  0.74988100    -0.76600
C805        C  0.55003483  0.46956334  0.83521687     0.85400
O806        O  0.65854535  0.09793242  0.78919927    -0.76700
C807        C  0.64596188  0.02383815  0.90642384     0.85500
C808        C  0.56725959  0.12201381  0.88464930     0.85800
O809        O  0.59448971  0.11912274  0.88632286    -0.79100
N810        N  0.75138111  0.21886240  0.74976634    -0.01600
C811        C  0.77961367  0.22404544  0.74224735     0.01000
C812        C  0.78238393  0.24930693  0.71556118    -0.21900
C813        C  0.75532308  0.25889592  0.70551879    -0.22100
C814        C  0.73678167  0.23948214  0.72644513     0.00900
H815        H  0.80210794  0.25916268  0.70415938     0.14700
H816        H  0.74979693  0.27634205  0.68415907     0.14700
C817        C  0.69334116  0.18953526  0.80673097     0.25500
C818        C  0.69345890  0.14777882  0.80206249    -0.22600
C819        C  0.71793142  0.12965954  0.78794662     0.20400
C820        C  0.74030051  0.15334475  0.77521026     0.25400
C821        C  0.73775843  0.19541473  0.77518574    -0.22600
C822        C  0.71533063  0.21312679  0.79342700     0.20300
F823        F  0.71295860  0.25371845  0.79480207    -0.12500
F824        F  0.67056209  0.20782188  0.82121764    -0.14900
F825        F  0.76177450  0.13531782  0.75816770    -0.14900
F826        F  0.71932693  0.08910491  0.78464889    -0.12500
C827        C  0.32121747  0.42000030  0.00540424     0.25500
C828        C  0.31414322  0.45332329  0.98618666    -0.22600
C829        C  0.32780113  0.45818962  0.95587943     0.20400
C830        C  0.34942447  0.43178459  0.94567057     0.25400
C831        C  0.35816718  0.39988964  0.96587595    -0.22600
C832        C  0.34315600  0.39371184  0.99558064     0.20300
F833        F  0.34992413  0.36267447  0.01553162    -0.12500
F834        F  0.30762902  0.41383349  0.03431486    -0.14900
F835        F  0.36271262  0.43883512  0.91668070    -0.14900
F836        F  0.32164615  0.49064409  0.93725687    -0.12500
C837        C  0.36992863  0.21719789  0.78095858     0.25500
C838        C  0.34065595  0.22310295  0.78739490    -0.22600
C839        C  0.33211221  0.24355570  0.81580792     0.20400
C840        C  0.35239763  0.26009673  0.83669598     0.25400
C841        C  0.38180620  0.25406925  0.83089457    -0.22600
C842        C  0.39052855  0.23185293  0.80314867     0.20300
F843        F  0.41881225  0.22538058  0.79715948    -0.12500
F844        F  0.37841201  0.19736660  0.75350826    -0.14900
F845        F  0.34312033  0.28143053  0.86308546    -0.14900
F846        F  0.30380277  0.24877104  0.82271227    -0.12500
C847        C  0.38752273  0.49937006  0.55438062     0.25500
C848        C  0.38071023  0.47889850  0.58342391    -0.22600
C849        C  0.35184661  0.47167879  0.59142626     0.20400
C850        C  0.33014267  0.48487282  0.57109713     0.25400
C851        C  0.33675363  0.50358846  0.54146799    -0.22600
C852        C  0.36547404  0.51102013  0.53301463     0.20300
F853        F  0.37200989  0.52943538  0.50441750    -0.12500
F854        F  0.41528699  0.50693459  0.54638626    -0.14900
F855        F  0.30239308  0.47821441  0.57987256    -0.14900
F856        F  0.34453074  0.45232703  0.61941480    -0.12500
C857        C  0.35485348  0.29792608  0.69102901     0.25500
C858        C  0.36222307  0.32997194  0.71212942    -0.22600
C859        C  0.34651114  0.33468791  0.74156451     0.20400
C860        C  0.32555306  0.30654290  0.75054738     0.25400
C861        C  0.32016707  0.27294692  0.73063920    -0.22600
C862        C  0.33417511  0.26972916  0.70036816     0.20300
F863        F  0.32910906  0.23745200  0.68077101    -0.12500
F864        F  0.36846960  0.29266280  0.66192535    -0.14900
F865        F  0.31103056  0.31158556  0.77903790    -0.14900
F866        F  0.35149059  0.36631928  0.76190057    -0.12500
C867        C  0.71861911  0.00607958  0.94251831     0.25500
C868        C  0.71224853  0.98457610  0.97093255    -0.22600
C869        C  0.68361696  0.97572386  0.97881331     0.20400
C870        C  0.66144603  0.98823608  0.95792605     0.25400
C871        C  0.66795483  0.01096707  0.92990917    -0.22600
C872        C  0.69675198  0.01998003  0.92266222     0.20300
F873        F  0.70391449  0.04151944  0.89571842    -0.12500
F874        F  0.74627637  0.01447993  0.93438367    -0.14900
F875        F  0.63381185  0.97909864  0.96538167    -0.14900
F876        F  0.67643623  0.45251147  0.00373203    -0.12500
C877        C  0.66429498  0.26525444  0.69276064     0.25500
C878        C  0.65335483  0.22637940  0.68767215    -0.22600
C879        C  0.66588687  0.19394115  0.70393378     0.20400
C880        C  0.69303256  0.19821541  0.71707482     0.25400
C881        C  0.70571551  0.23638300  0.71985846    -0.22600
C882        C  0.69019997  0.27028903  0.70958485     0.20300
F883        F  0.70181247  0.30759236  0.71216134    -0.12500
F884        F  0.65230104  0.29735778  0.67771773    -0.14900
F885        F  0.70853352  0.16429523  0.72096251    -0.14900
F886        F  0.65470635  0.15635863  0.70095109    -0.12500
C887        C  0.70543876  0.09532443  0.51893199     0.25500
C888        C  0.68905853  0.08822068  0.54749741    -0.22600
C889        C  0.69642208  0.05528800  0.56729894     0.20400
C890        C  0.71805399  0.02869950  0.55753165     0.25400
C891        C  0.73296531  0.03448919  0.52812842    -0.22600
C892        C  0.72729348  0.06877204  0.50951260     0.20300
F893        F  0.74121274  0.07497105  0.98165409    -0.12500
F894        F  0.70017077  0.12768437  0.49980975    -0.14900
F895        F  0.72319074  0.99545740  0.57564966    -0.14900
F896        F  0.68179366  0.04749510  0.59531496    -0.12500
C897        C  0.33515926  0.22196934  0.94049568     0.25500
C898        C  0.35485154  0.21644354  0.96632560    -0.22600
C899        C  0.36207357  0.18071020  0.49919774     0.20400
C900        C  0.33459745  0.17574557  0.51232749     0.25400
C901        C  0.29678596  0.23227355  0.97970930    -0.22600
C902        C  0.30634928  0.23103600  0.94726408     0.20300
F903        F  0.28897303  0.24364041  0.92275912    -0.12500
F904        F  0.34461776  0.22485196  0.90921390    -0.14900
F905        F  0.33182991  0.16022053  0.54283162    -0.17300
F906        F  0.38537745  0.17046524  0.51720933    -0.12500
C907        C  0.19050827  0.19572009  0.94036252     0.25500
C908        C  0.18715669  0.15920032  0.95716586    -0.22600
C909        C  0.20638288  0.15056701  0.98297149     0.20400
C910        C  0.24346298  0.14131117  0.48285810     0.25400
C911        C  0.22957511  0.21567107  0.97675257    -0.22600
C912        C  0.21131760  0.22360577  0.95027163     0.20300
F913        F  0.21258974  0.25983331  0.93527651    -0.12500
F914        F  0.17267203  0.20553110  0.91541382    -0.14900
F915        F  0.26393604  0.12079113  0.49938749    -0.14900
F916        F  0.21956709  0.07956279  0.47155654    -0.12500
C917        C  0.19939093  0.45859041  0.99403267     0.25500
C918        C  0.18743873  0.96154383  0.96180579    -0.22600
C919        C  0.21113995  0.96978779  0.44111246     0.20400
C920        C  0.24075480  0.48458377  0.44694084     0.25400
C921        C  0.24844683  0.47748252  0.98029821    -0.22600
C922        C  0.22851250  0.46060316  0.00222500     0.20300
F923        F  0.23654691  0.45221031  0.03338389    -0.12500
F924        F  0.17993906  0.44823364  0.01728139    -0.14900
F925        F  0.26043918  0.98859058  0.43843010    -0.14900
F926        F  0.20705619  0.98717330  0.41157556    -0.12500
C927        C  0.72616770  0.46173686  0.74839286     0.25500
C928        C  0.74673904  0.47509834  0.77118902    -0.22600
C929        C  0.73955300  0.47654362  0.80443042     0.20400
C930        C  0.71195381  0.97486111  0.81228247     0.25400
C931        C  0.68942232  0.46407987  0.79036897    -0.22600
C932        C  0.69758161  0.45679771  0.75783128     0.20300
F933        F  0.67738015  0.44984560  0.73454588    -0.12500
F934        F  0.73302371  0.45894268  0.71613280    -0.14900
F935        F  0.70675851  0.98879844  0.84298657    -0.14900
F936        F  0.76070541  0.99553097  0.81789117    -0.12500
C937        C  0.85232329  0.43774971  0.81051061     0.25500
C938        C  0.85789903  0.40212491  0.79290062    -0.22600
C939        C  0.83912350  0.39128485  0.76715414     0.20400
C940        C  0.81686539  0.41710363  0.75769134     0.25400
C941        C  0.81316763  0.45421659  0.77353975    -0.22600
C942        C  0.83030839  0.46349094  0.80073347     0.20300
F943        F  0.82715984  0.49944274  0.81612308    -0.12500
F944        F  0.86924030  0.44905094  0.83598550    -0.14900
F945        F  0.79999321  0.40696154  0.73191210    -0.14900
F946        F  0.84249242  0.35597614  0.75081759    -0.12500
C947        C  0.83839890  0.21584981  0.80358701     0.25500
C948        C  0.86176290  0.21166918  0.78188303    -0.22600
C949        C  0.85659014  0.19898336  0.74970518     0.20400
C950        C  0.82842845  0.19525462  0.73842891     0.25400
C951        C  0.80519618  0.20706335  0.75848748    -0.22600
C952        C  0.81017313  0.21436708  0.79181455     0.20300
F953        F  0.78835267  0.22564850  0.81187227    -0.12500
F954        F  0.84290322  0.22724525  0.83506522    -0.14900
F955        F  0.82399820  0.18542443  0.70651304    -0.14900
F956        F  0.87871042  0.19395104  0.72840593    -0.12500
C957        C  0.30566646  0.99831273  0.69176477     0.25500
C958        C  0.29509365  0.00385948  0.72356313    -0.22600
C959        C  0.31302490  0.02122940  0.74747143     0.20400
C960        C  0.34616716  0.52058127  0.75205676     0.25400
C961        C  0.35552827  0.51837014  0.71946578    -0.22600
C962        C  0.33477215  0.51701628  0.69429386     0.20300
F963        F  0.34306300  0.51616940  0.66246575    -0.12500
F964        F  0.28871095  0.98159976  0.66835341    -0.14900
F965        F  0.36549813  0.52269624  0.77686001    -0.14900
F966        F  0.30307230  0.02711961  0.77838385    -0.12500
C967        C  0.17896258  0.97342238  0.77525646     0.25500
C968        C  0.20801256  0.97792411  0.78358518    -0.22600
C969        C  0.21559643  0.99813015  0.81244547     0.20400
C970        C  0.19465112  0.01470504  0.83243742     0.25400
C971        C  0.16546387  0.00952209  0.82500934    -0.22600
C972        C  0.15761307  0.98839350  0.79640426     0.20300
F973        F  0.12952835  0.98335098  0.78858714    -0.12500
F974        F  0.17051875  0.44309787  0.76051791    -0.14900
F975        F  0.20302475  0.03526402  0.85959006    -0.14900
F976        F  0.24363833  0.00300208  0.82072941    -0.12500
C977        C  0.17305714  0.25788614  0.56619679     0.25500
C978        C  0.16042815  0.22030598  0.57215482    -0.22600
C979        C  0.17220124  0.18581532  0.55743381     0.20400
C980        C  0.19962268  0.18723569  0.54450387     0.25400
C981        C  0.21392301  0.22410014  0.54154253    -0.22600
C982        C  0.19972977  0.25975270  0.55047737     0.20300
F983        F  0.21300192  0.29580542  0.54707098    -0.12500
F984        F  0.16160062  0.29191895  0.57911786    -0.14900
F985        F  0.21361360  0.15198179  0.54014225    -0.14900
F986        F  0.15950731  0.14931677  0.56109626    -0.12500
C987        C  0.22540624  0.06136596  0.74669341     0.25500
C988        C  0.22942093  0.02677787  0.72749948    -0.22600
C989        C  0.21321330  0.02179472  0.69890649     0.20400
C990        C  0.19219035  0.04970421  0.69035614     0.25400
C991        C  0.18671972  0.08332721  0.71054908    -0.22600
C992        C  0.20418077  0.08938569  0.73842067     0.20300
F993        F  0.20059059  0.12215109  0.75790963    -0.12500
F994        F  0.24118074  0.06702483  0.77420451    -0.14900
F995        F  0.17625020  0.04255008  0.66313702    -0.14900
F996        F  0.21637919  0.98800073  0.68052390    -0.12500
C997        C  0.21607347  0.25410818  0.68682593     0.25500
C998        C  0.19694180  0.26461126  0.71232209    -0.22600
C999        C  0.20804100  0.27271914  0.74356745     0.20400
C1000       C  0.23707247  0.26587495  0.75008078     0.25400
C1001       C  0.25504039  0.24925331  0.72584382    -0.22600
C1002       C  0.24489317  0.24563885  0.69374855     0.20300
F1003       F  0.26182901  0.22940507  0.67008583    -0.12500
F1004       F  0.20600628  0.24595633  0.65631664    -0.14900
F1005       F  0.24670712  0.26992953  0.78129248    -0.14900
F1006       F  0.19022997  0.28304136  0.76855465    -0.12500
C1007       C  0.74367370  0.24796129  0.56203649     0.25500
C1008       C  0.75274585  0.25551845  0.52995841    -0.22600
C1009       C  0.73373170  0.27435258  0.50815387     0.20400
C1010       C  0.70483599  0.27945387  0.51653502     0.25400
C1011       C  0.69486846  0.26728196  0.54731692    -0.22600
C1012       C  0.71494374  0.25453253  0.57090858     0.20300
F1013       F  0.70593153  0.24250972  0.60092781    -0.12500
F1014       F  0.76090297  0.23212796  0.08303679    -0.14900
F1015       F  0.68603644  0.29206631  0.49342423    -0.14900
F1016       F  0.74214951  0.28200435  0.47696252    -0.12500
C1017       C  0.86582554  0.22890306  0.97402989     0.25500
C1018       C  0.83695269  0.23047667  0.96430039    -0.22600
C1019       C  0.82972976  0.24706269  0.93397163     0.20400
C1020       C  0.85088978  0.26255773  0.91375908     0.25400
C1021       C  0.87988296  0.26004798  0.92272483    -0.22600
C1022       C  0.88738584  0.24288100  0.95288093     0.20300
F1023       F  0.91529995  0.24101409  0.96219182    -0.12500
F1024       F  0.87299267  0.21415439  0.00379637    -0.14900
F1025       F  0.84299940  0.27979653  0.88511627    -0.14900
F1026       F  0.80184299  0.24981571  0.92452468    -0.12500
C1027       C  0.85327407  0.45819379  0.67111790     0.25500
C1028       C  0.88171796  0.47041739  0.67703357    -0.22600
C1029       C  0.88762044  0.49645464  0.70352010     0.20400
C1030       C  0.86515603  0.51009367  0.72365090     0.25400
C1031       C  0.83686396  0.49860242  0.71662305    -0.22600
C1032       C  0.83115292  0.47278528  0.69030694     0.20300
F1033       F  0.80375112  0.46211860  0.68282952    -0.12500
F1034       F  0.84644568  0.43381925  0.64548554    -0.14900
F1035       F  0.87085789  0.53473707  0.74939725    -0.14900
F1036       F  0.91491469  0.50851007  0.70982085    -0.12500
C1037       C  0.85583678  0.29731966  0.56155849     0.25500
C1038       C  0.86310956  0.33058965  0.54197426    -0.22600
C1039       C  0.84682435  0.33746616  0.51331622     0.20400
C1040       C  0.82487577  0.31090238  0.50397576     0.25400
C1041       C  0.81871663  0.27698663  0.52289266    -0.22600
C1042       C  0.83389792  0.27098293  0.55204376     0.20300
F1043       F  0.82881907  0.23761019  0.57007018    -0.12500
F1044       F  0.87068030  0.28909293  0.58928338    -0.14900
F1045       F  0.80974394  0.31885910  0.97574780    -0.14900
F1046       F  0.85231386  0.36952390  0.49390664    -0.12500
C1047       C  0.84657959  0.52986565  0.51458416     0.25500
C1048       C  0.85587454  0.52090247  0.54632081    -0.22600
C1049       C  0.83515510  0.51324727  0.57076661     0.20400
C1050       C  0.80828345  0.00647553  0.56608942     0.25400
C1051       C  0.79861933  0.01430110  0.53433747    -0.22600
C1052       C  0.81623700  0.03214504  0.01244619     0.20300
F1053       F  0.80713711  0.04037355  0.98164650    -0.12500
F1054       F  0.86503001  0.53962000  0.99162578    -0.14900
F1055       F  0.79080050  0.98779671  0.58783847    -0.14900
F1056       F  0.84344640  0.50530559  0.60189463    -0.12500
C1057       C  0.05234016  0.59760961  0.09950490     0.82100
N1058       N  0.06520554  0.59840064  0.06940773    -0.76200
C1059       C  0.05422887  0.57713600  0.04382543     0.84500
N1060       N  0.03125333  0.55304563  0.04898495    -0.76200
C1061       C  0.01857598  0.55087940  0.07890115     0.84600
N1062       N  0.02892261  0.57356211  0.10428589    -0.77900
O1063       O  0.89437117  0.98381723  0.03116997    -0.76600
C1064       C  0.97690465  0.92156117  0.99454742     0.84400
O1065       O  0.89518462  0.86300909  0.08118711    -0.77700
O1066       O  0.99680346  0.88655315  0.10776733    -0.79200
O1067       O  0.97397162  0.02979981  0.08923543    -0.79000
O1068       O  0.90018378  0.01757345  0.07816314    -0.77600
Zn1069     Zn  0.92176399  0.93668511  0.03342383     1.55700
O1070       O  0.00591716  0.98278960  0.07478445    -0.79000
Cd1071     Cd  0.93784316  0.99356743  0.09600634     1.59700
Cd1072     Cd  0.92425925  0.90120545  0.10376736     1.59600
O1073       O  0.92754783  0.98825408  0.14498686    -0.79000
O1074       O  0.94247100  0.93976429  0.07433258    -1.89500
Cd1075     Cd  0.98403173  0.92812573  0.07004981     1.59900
O1076       O  0.90174536  0.93297446  0.13727248    -0.79000
O1077       O  0.99176564  0.91425518  0.02029872    -0.77600
C1078       C  0.88496520  0.86353155  0.05228826     0.84900
C1079       C  0.88575686  0.00924318  0.05255981     0.84600
O1080       O  0.95052291  0.93210714  0.99598601    -0.76600
C1081       C  0.99930082  0.01936902  0.08078652     0.85400
O1082       O  0.89407912  0.88890771  0.03141739    -0.76700
C1083       C  0.90753362  0.96450802  0.15366037     0.85500
C1084       C  0.98166746  0.86947577  0.13016588     0.85800
O1085       O  0.95444555  0.87203726  0.13071853    -0.79100
N1086       N  0.80324869  0.74575955  0.51330195    -0.01600
C1087       C  0.77676383  0.73009797  0.01974825     0.01000
C1088       C  0.77125333  0.69681586  0.50330935    -0.21900
C1089       C  0.79475570  0.68981617  0.48378785    -0.22100
C1090       C  0.81388242  0.72052989  0.49024356     0.00900
H1091       H  0.75105169  0.68057618  0.50231581     0.14700
H1092       H  0.79650142  0.66725325  0.46478212     0.14700
C1093       C  0.99477383  0.84744836  0.15790730     0.82100
N1094       N  0.98080864  0.84784132  0.18743984    -0.76200
C1095       C  0.99125453  0.82701853  0.21336093     0.84500
N1096       N  0.01486543  0.80392308  0.20905465    -0.76200
C1097       C  0.02857890  0.80217603  0.17972959     0.84600
N1098       N  0.01872615  0.82430852  0.15405298    -0.77900
O1099       O  0.15256412  0.73249050  0.23214878    -0.76600
C1100       C  0.06978385  0.66999522  0.26212446     0.84400
O1101       O  0.15344838  0.61473846  0.17407668    -0.77700
O1102       O  0.05136587  0.63770883  0.14935366    -0.79200
O1103       O  0.07686023  0.78196471  0.16976855    -0.79000
O1104       O  0.14997550  0.76780878  0.18601485    -0.77600
Zn1105     Zn  0.12588699  0.68539350  0.22502937     1.55700
O1106       O  0.04372918  0.73496340  0.18032125    -0.79000
Cd1107     Cd  0.11298686  0.74563712  0.16454705     1.59700
Cd1108     Cd  0.12416496  0.65270282  0.15210406     1.59600
O1109       O  0.12595752  0.74383283  0.11624661    -0.79000
O1110       O  0.10648552  0.69069023  0.18317926    -1.89500
Cd1111     Cd  0.06457041  0.68001553  0.18645708     1.59900
O1112       O  0.14761646  0.68471473  0.11934736    -0.79000
O1113       O  0.05507985  0.66640334  0.23571968    -0.77600
C1114       C  0.16386544  0.61505105  0.20290589     0.84900
C1115       C  0.16290872  0.75813100  0.21224016     0.84600
O1116       O  0.09665835  0.67782992  0.26173829    -0.76600
C1117       C  0.05097322  0.77152841  0.17554533     0.85400
O1118       O  0.15445670  0.63922863  0.22471014    -0.76700
C1119       C  0.14500570  0.71916621  0.10648926     0.85500
C1120       C  0.06610001  0.62034276  0.12668746     0.85800
O1121       O  0.09333149  0.62329254  0.12537600    -0.79100
N1122       N  0.24357922  0.49751228  0.24491728    -0.01600
C1123       C  0.27091291  0.48380437  0.24424216     0.01000
C1124       C  0.27283700  0.44876358  0.26223270    -0.21900
C1125       C  0.24623577  0.44185087  0.27556760    -0.22100
C1126       C  0.22889017  0.47269600  0.26510752     0.00900
H1127       H  0.29043491  0.92077582  0.25147268     0.14700
H1128       H  0.24121372  0.41999326  0.29426634     0.14700
C1129       C  0.05206632  0.64776391  0.34944751     0.82100
N1130       N  0.06546077  0.64720636  0.31962289    -0.76200
C1131       C  0.05478162  0.66835436  0.29403775     0.84500
N1132       N  0.03158295  0.69201956  0.29894229    -0.76200
C1133       C  0.01844698  0.69392340  0.32858854     0.84600
N1134       N  0.02842631  0.67135560  0.35394578    -0.77900
O1135       O  0.94902361  0.81720580  0.24551617    -0.76600
C1136       C  0.88708842  0.72950744  0.29340530     0.84400
O1137       O  0.89284345  0.88002270  0.33339382    -0.77700
O1138       O  0.92018043  0.75175841  0.39207812    -0.79200
O1139       O  0.00265850  0.76079122  0.32692847    -0.79000
O1140       O  0.99048225  0.82872068  0.27162850    -0.77600
Zn1141     Zn  0.91983378  0.80749347  0.28250380     1.55700
O1142       O  0.97048734  0.71364843  0.34020203    -0.79000
Cd1143     Cd  0.98090888  0.81490127  0.32070399     1.59700
Cd1144     Cd  0.92093220  0.84082888  0.35557440     1.59600
O1145       O  0.99359513  0.85773548  0.35722095    -0.79000
O1146       O  0.93914031  0.80313417  0.32436899    -1.89500
Cd1147     Cd  0.93365178  0.74850345  0.34394194     1.59900
O1148       O  0.95179631  0.86988588  0.38244796    -0.79000
O1149       O  0.89898796  0.72178956  0.32069859    -0.77600
C1150       C  0.88114973  0.87737034  0.30533216     0.84900
C1151       C  0.97589310  0.82528325  0.24516674     0.84600
O1152       O  0.89584446  0.75773667  0.27487277    -0.76600
C1153       C  0.99601304  0.72435373  0.33308441     0.85400
O1154       O  0.88947244  0.85167980  0.28405415    -0.76700
C1155       C  0.97890198  0.87418954  0.38031850     0.85500
C1156       C  0.90019370  0.77527374  0.40121909     0.85800
O1157       O  0.89605683  0.80902535  0.38766440    -0.79100
N1158       N  0.79708780  0.98131551  0.25407942    -0.01600
C1159       C  0.76853177  0.98805993  0.25112358     0.01000
C1160       C  0.76337973  0.01468034  0.22585451    -0.21900
C1161       C  0.78941486  0.02336138  0.21185160    -0.22100
C1162       C  0.80948582  0.00178719  0.22912710     0.00900
H1163       H  0.74267026  0.02473228  0.21726689     0.14700
H1164       H  0.79293499  0.04037065  0.18984165     0.14700
C1165       C  0.99269056  0.89792979  0.40673933     0.82100
N1166       N  0.98008640  0.89819453  0.43693394    -0.76200
C1167       C  0.99123189  0.92045837  0.46179775     0.84500
N1168       N  0.01414231  0.94442514  0.45585209    -0.76200
C1169       C  0.02658077  0.94536092  0.42575470     0.84600
N1170       N  0.01611748  0.92160974  0.40114382    -0.77900
O1171       O  0.09611411  0.56628031  0.51116829    -0.76600
C1172       C  0.16153923  0.48623961  0.45867584     0.84400
O1173       O  0.15258295  0.63208631  0.42451674    -0.77700
O1174       O  0.12236620  0.50371349  0.36363246    -0.79200
O1175       O  0.04206185  0.51134052  0.42932086    -0.79000
O1176       O  0.05446545  0.57917745  0.48582320    -0.77600
Zn1177     Zn  0.12528700  0.55963737  0.47403987     1.55700
O1178       O  0.07435986  0.96365313  0.41141599    -0.79000
Cd1179     Cd  0.06346670  0.56605262  0.43612696     1.59700
Cd1180     Cd  0.12344329  0.59343768  0.40199747     1.59600
O1181       O  0.05055460  0.60828154  0.39924396    -0.79000
O1182       O  0.10536358  0.55530521  0.43243200    -1.89500
Cd1183     Cd  0.11098815  0.50075851  0.41234528     1.59900
O1184       O  0.09269635  0.62248814  0.37562018    -0.79000
O1185       O  0.14802704  0.47742769  0.43251888    -0.77600
C1186       C  0.16294704  0.63119348  0.45337866     0.84900
C1187       C  0.06931070  0.57461989  0.51200657     0.84600
O1188       O  0.15224146  0.51230265  0.47913717    -0.76600
C1189       C  0.04934117  0.97517481  0.42005261     0.85400
O1190       O  0.15372037  0.60626372  0.47452318    -0.76700
C1191       C  0.06548559  0.62536600  0.37672114     0.85500
C1192       C  0.14189643  0.52763599  0.35402572     0.85800
O1193       O  0.14608880  0.56128671  0.36814453    -0.79100
N1194       N  0.24737629  0.74358236  0.99899000    -0.01600
C1195       C  0.27582443  0.75198460  0.99838638     0.01000
C1196       C  0.28152339  0.78504326  0.01810703    -0.21900
C1197       C  0.25610399  0.79591534  0.03259519    -0.22100
C1198       C  0.23572347  0.76937721  0.02102630     0.00900
H1199       H  0.30248159  0.79717847  0.02403388     0.14700
H1200       H  0.25363310  0.81705940  0.05266000     0.14700
C1201       C  0.49431862  0.84535242  0.09924867     0.82100
N1202       N  0.51800759  0.82182971  0.10321701    -0.76200
C1203       C  0.52791433  0.79923437  0.07759966     0.84500
N1204       N  0.51447462  0.80087084  0.04813870    -0.76200
C1205       C  0.49110580  0.82439440  0.04367130     0.84600
N1206       N  0.48060876  0.84567212  0.06959348    -0.77900
O1207       O  0.59583510  0.67679293  0.99814100    -0.76600
C1208       C  0.66372914  0.75238282  0.05225242     0.84400
O1209       O  0.65343854  0.61147265  0.08346795    -0.77700
O1210       O  0.61837137  0.73721508  0.14529272    -0.79200
O1211       O  0.54244850  0.73160617  0.07856551    -0.79000
O1212       O  0.55456716  0.66180668  0.02388698    -0.77600
Zn1213     Zn  0.62519998  0.68283390  0.03460944     1.55700
O1214       O  0.57603746  0.77851234  0.08761063    -0.79000
Cd1215     Cd  0.56340340  0.67636019  0.07314998     1.59700
Cd1216     Cd  0.62339706  0.64880574  0.10585666     1.59600
O1217       O  0.55073885  0.63510075  0.11105257    -0.79000
O1218       O  0.60517710  0.68675677  0.07593943    -1.89500
Cd1219     Cd  0.61102508  0.74105273  0.09580092     1.59900
O1220       O  0.59317539  0.61882085  0.13277468    -0.79000
O1221       O  0.65034747  0.76079473  0.07861911    -0.77600
C1222       C  0.66289983  0.61137621  0.05415871     0.84900
C1223       C  0.56922891  0.66723254  0.99763220     0.84600
O1224       O  0.65294867  0.72961137  0.03017498    -0.76600
C1225       C  0.55004138  0.76830666  0.08217255     0.85400
O1226       O  0.65281828  0.63552963  0.03299987    -0.76700
C1227       C  0.56588997  0.61708376  0.13283108     0.85500
C1228       C  0.63729170  0.71316822  0.15595094     0.85800
O1229       O  0.64429126  0.68161072  0.14015852    -0.79100
N1230       N  0.74694410  0.49684517  0.51150634    -0.01600
C1231       C  0.77402510  0.48502945  0.01674929     0.01000
C1232       C  0.78017989  0.45082385  0.49833396    -0.21900
C1233       C  0.75576587  0.44186665  0.48093873    -0.22100
C1234       C  0.73590453  0.47089122  0.48924695     0.00900
H1235       H  0.80251642  0.94070398  0.49986676     0.14700
H1236       H  0.75384410  0.41962583  0.46179217     0.14700
C1237       C  0.55259222  0.59482204  0.16042887     0.82100
N1238       N  0.56608135  0.59532562  0.19021236    -0.76200
C1239       C  0.55530194  0.57425804  0.21592427     0.84500
N1240       N  0.53192565  0.55071952  0.21108537    -0.76200
C1241       C  0.51869682  0.54887729  0.18148972     0.84600
N1242       N  0.52883938  0.57132722  0.15610338    -0.77900
O1243       O  0.45068194  0.92807421  0.26268102    -0.76600
C1244       C  0.38232734  0.00130285  0.20824551     0.84400
O1245       O  0.39470270  0.86072832  0.17604329    -0.77700
O1246       O  0.42539715  0.98733747  0.11525239    -0.79200
O1247       O  0.50415200  0.98199991  0.18231053    -0.79000
O1248       O  0.49210397  0.91325179  0.23717208    -0.77600
Zn1249     Zn  0.42153997  0.93265381  0.22573122     1.55700
O1250       O  0.47089013  0.02871377  0.17184640    -0.79000
Cd1251     Cd  0.48335072  0.92671518  0.18761759     1.59700
Cd1252     Cd  0.42372898  0.89894901  0.15413464     1.59600
O1253       O  0.49622147  0.88506719  0.14948471    -0.79000
O1254       O  0.44159611  0.93722893  0.18437543    -1.89500
Cd1255     Cd  0.43533589  0.99130618  0.16447078     1.59900
O1256       O  0.45391346  0.86988872  0.12674112    -0.79000
O1257       O  0.39634809  0.01106509  0.18270064    -0.77600
C1258       C  0.38506516  0.86020411  0.20520779     0.84900
C1259       C  0.47734806  0.91893782  0.26339200     0.84600
O1260       O  0.39270077  0.97793712  0.22990150    -0.76600
C1261       C  0.49677382  0.01858934  0.17803857     0.85400
O1262       O  0.39468886  0.88440857  0.22685890    -0.76700
C1263       C  0.48113978  0.86763026  0.12709598     0.85500
C1264       C  0.40636469  0.96257903  0.10548025     0.85800
O1265       O  0.40116133  0.93038485  0.12092951    -0.79100
N1266       N  0.30325412  0.74226545  0.24393067    -0.01600
C1267       C  0.27548506  0.73087631  0.24116076     0.01000
C1268       C  0.27107685  0.69545808  0.25801318    -0.21900
C1269       C  0.29666708  0.68575652  0.27261322    -0.22100
C1270       C  0.31589955  0.71545737  0.26406201     0.00900
H1271       H  0.25065676  0.68083034  0.26231342     0.14700
H1272       H  0.29976017  0.66280610  0.29096524     0.14700
C1273       C  0.55305177  0.64300349  0.41047605     0.82100
N1274       N  0.56604595  0.64322440  0.44042659    -0.76200
C1275       C  0.55509960  0.66513050  0.46563078     0.84500
N1276       N  0.53199373  0.68876392  0.46027519    -0.76200
C1277       C  0.51919808  0.68979579  0.43044880     0.84600
N1278       N  0.52949778  0.66650300  0.40545313    -0.77900
O1279       O  0.39564902  0.75571984  0.48101929    -0.76600
C1280       C  0.47615026  0.82214745  0.51143432     0.84400
O1281       O  0.39160094  0.87356484  0.42127966    -0.77700
O1282       O  0.49470376  0.85397672  0.39945912    -0.79200
O1283       O  0.47116938  0.70888227  0.41879705    -0.79000
O1284       O  0.39836703  0.71980193  0.43483734    -0.77600
Zn1285     Zn  0.42050149  0.80442836  0.47342379     1.55700
O1286       O  0.50353254  0.75681603  0.43002587    -0.79000
Cd1287     Cd  0.43455508  0.74368127  0.41277230     1.59700
Cd1288     Cd  0.42190551  0.83598500  0.39991488     1.59600
O1289       O  0.42218358  0.74395381  0.36408743    -0.79000
O1290       O  0.43998487  0.79914656  0.43153784    -1.89500
Cd1291     Cd  0.48173295  0.81117958  0.43575344     1.59900
O1292       O  0.39966759  0.80270953  0.36611406    -0.79000
O1293       O  0.49090604  0.82543862  0.48505894    -0.77600
C1294       C  0.38064006  0.87214761  0.44982963     0.84900
C1295       C  0.38588412  0.72880649  0.46163828     0.84600
O1296       O  0.44927083  0.81418035  0.51084587    -0.76600
C1297       C  0.49676933  0.72000691  0.42525904     0.85400
O1298       O  0.39021577  0.84841081  0.47163267    -0.76700
C1299       C  0.40322973  0.76805475  0.35347933     0.85500
C1300       C  0.48002075  0.87088686  0.37675056     0.85800
O1301       O  0.45290780  0.86663063  0.37463734    -0.79100
N1302       N  0.29443566  0.96994275  0.00637018    -0.01600
C1303       C  0.26572813  0.97548925  0.00969106     0.01000
C1304       C  0.26004545  0.99983518  0.03655020    -0.21900
C1305       C  0.28589951  0.00866762  0.05085589    -0.22100
C1306       C  0.30647606  0.98944437  0.03225477     0.00900
H1307       H  0.23922433  0.00914885  0.04533285     0.14700
H1308       H  0.28913243  0.02504105  0.07344185     0.14700
C1309       C  0.49375398  0.89473483  0.35044041     0.82100
N1310       N  0.51741080  0.91816917  0.35584094    -0.76200
C1311       C  0.52781958  0.94162357  0.33114960     0.84500
N1312       N  0.51503777  0.94070197  0.30126019    -0.76200
C1313       C  0.49186347  0.91713136  0.29552700     0.84600
N1314       N  0.48084511  0.89512629  0.32044079    -0.77900
O1315       O  0.64987715  0.50494330  0.27674927    -0.76600
C1316       C  0.57032203  0.57238088  0.24794929     0.84400
O1317       O  0.65402642  0.62647369  0.33646571    -0.77700
O1318       O  0.55204984  0.60300570  0.36075892    -0.79200
O1319       O  0.57577732  0.96090126  0.34461448    -0.79000
O1320       O  0.64887013  0.47179729  0.32402905    -0.77600
Zn1321     Zn  0.62612400  0.55444830  0.28536288     1.55700
O1322       O  0.54366555  0.50610334  0.32955211    -0.79000
Cd1323     Cd  0.61271180  0.49518799  0.34654527     1.59700
Cd1324     Cd  0.62487660  0.58791539  0.35819685     1.59600
O1325       O  0.62622787  0.49799324  0.39474112    -0.79000
O1326       O  0.60674274  0.54983337  0.32723428    -1.89500
Cd1327     Cd  0.56491641  0.56083683  0.32362280     1.59900
O1328       O  0.64934161  0.55609952  0.39024882    -0.79000
O1329       O  0.55547345  0.57485484  0.27437284    -0.77600
C1330       C  0.66614344  0.62282879  0.30865324     0.84900
C1331       C  0.66059990  0.47967364  0.29662707     0.84600
O1332       O  0.59727346  0.56505551  0.24842119    -0.76600
C1333       C  0.55049611  0.97178905  0.33655588     0.85400
O1334       O  0.65728395  0.59742900  0.28744637    -0.76700
C1335       C  0.64607720  0.52201061  0.40356244     0.85500
C1336       C  0.56679245  0.61993575  0.38360266     0.85800
O1337       O  0.59398353  0.61662213  0.38517204    -0.79100
N1338       N  0.74964663  0.72185264  0.25200334    -0.01600
C1339       C  0.77788989  0.72836153  0.24554015     0.01000
C1340       C  0.78074073  0.75513601  0.21984849    -0.21900
C1341       C  0.75369156  0.76407107  0.20920147    -0.22100
C1342       C  0.73513524  0.74272672  0.22879527     0.00900
H1343       H  0.80051839  0.76591917  0.20916710     0.14700
H1344       H  0.74828066  0.78188273  0.18800822     0.14700
C1345       C  0.69121356  0.68936122  0.30696856     0.25500
C1346       C  0.69154076  0.64787849  0.30093227    -0.22600
C1347       C  0.71617866  0.63055650  0.28656825     0.20400
C1348       C  0.73863990  0.65494893  0.27505440     0.25400
C1349       C  0.73587426  0.69695132  0.27629422    -0.22600
C1350       C  0.71319987  0.71367532  0.29469658     0.20300
F1351       F  0.71071877  0.75416663  0.29736531    -0.12500
F1352       F  0.66832070  0.70679020  0.32192585    -0.14900
F1353       F  0.76047201  0.63790302  0.25793297    -0.14900
F1354       F  0.71774953  0.59018543  0.28208030    -0.12500
C1355       C  0.30744089  0.90450377  0.48089488     0.25500
C1356       C  0.31067384  0.94645779  0.48174981    -0.22600
C1357       C  0.33495711  0.96368657  0.46671547     0.20400
C1358       C  0.35716876  0.93948403  0.45463146     0.25400
C1359       C  0.35558235  0.89765292  0.45774615    -0.22600
C1360       C  0.33006396  0.88023171  0.46964245     0.20300
F1361       F  0.32760387  0.83969315  0.47170087    -0.12500
F1362       F  0.28429877  0.88702365  0.49515232    -0.14900
F1363       F  0.38123454  0.95699828  0.44248994    -0.14900
F1364       F  0.33827302  0.00418650  0.46663356    -0.12500
C1365       C  0.36850419  0.71739656  0.27963277     0.25500
C1366       C  0.33966948  0.72711365  0.28567562    -0.22600
C1367       C  0.33233780  0.75006276  0.31323694     0.20400
C1368       C  0.35336171  0.76419391  0.33421940     0.25400
C1369       C  0.38231934  0.75452833  0.32881712    -0.22600
C1370       C  0.38985847  0.73055215  0.30157678     0.20300
F1371       F  0.41768449  0.72056793  0.29602401    -0.12500
F1372       F  0.37582046  0.69527761  0.25290691    -0.14900
F1373       F  0.34512715  0.78615808  0.36073532    -0.14900
F1374       F  0.30443797  0.75885128  0.31986453    -0.12500
C1375       C  0.37819447  0.01088192  0.07161798     0.25500
C1376       C  0.38760236  0.97146418  0.07758143    -0.22600
C1377       C  0.37297103  0.93910336  0.06300382     0.20400
C1378       C  0.34675963  0.94525070  0.04803031     0.25400
C1379       C  0.33632235  0.98427503  0.04337008    -0.22600
C1380       C  0.35272617  0.01723646  0.05419427     0.20300
F1381       F  0.34285972  0.05524992  0.05032476    -0.12500
F1382       F  0.39181739  0.04279739  0.08542836    -0.14900
F1383       F  0.32993343  0.91269824  0.04259437    -0.14900
F1384       F  0.38207324  0.90070054  0.06712177    -0.12500
C1385       C  0.35672049  0.79720117  0.19438237     0.25500
C1386       C  0.36152628  0.83176016  0.21366448    -0.22600
C1387       C  0.34282675  0.83950037  0.24024715     0.20400
C1388       C  0.32103458  0.81210576  0.24834116     0.25400
C1389       C  0.31779381  0.77642372  0.23032849    -0.22600
C1390       C  0.33517174  0.76991212  0.20277842     0.20300
F1391       F  0.33250530  0.73528732  0.18534581    -0.12500
F1392       F  0.37382293  0.78855470  0.16834905    -0.14900
F1393       F  0.30396906  0.81948541  0.27459426    -0.14900
F1394       F  0.34572451  0.87336436  0.25860977    -0.12500
C1395       C  0.71859021  0.50278015  0.43937977     0.25500
C1396       C  0.71192339  0.48150715  0.46785327    -0.22600
C1397       C  0.68320400  0.47380264  0.47599141     0.20400
C1398       C  0.66121130  0.48687477  0.45516604     0.25400
C1399       C  0.66801472  0.50892855  0.42691525    -0.22600
C1400       C  0.69689514  0.51709622  0.41947589     0.20300
F1401       F  0.70426307  0.53820345  0.39236291    -0.12500
F1402       F  0.74635234  0.51049673  0.43123549    -0.14900
F1403       F  0.63344301  0.47902884  0.46292564    -0.14900
F1404       F  0.67860807  0.95510775  0.50560570    -0.12500
C1405       C  0.66228346  0.76209753  0.19273465     0.25500
C1406       C  0.65391083  0.72242481  0.18549980    -0.22600
C1407       C  0.66853120  0.69048201  0.20011580     0.20400
C1408       C  0.69483885  0.69726919  0.21465083     0.25400
C1409       C  0.70469281  0.73659579  0.22017682    -0.22600
C1410       C  0.68739001  0.76911426  0.21073218     0.20300
F1411       F  0.69645612  0.80743901  0.21564051    -0.12500
F1412       F  0.64838065  0.79369075  0.17917925    -0.14900
F1413       F  0.71254510  0.66532679  0.21741730    -0.14900
F1414       F  0.66004649  0.65185721  0.19505747    -0.12500
C1415       C  0.70448761  0.59158993  0.01747620     0.25500
C1416       C  0.68664357  0.58346602  0.04471130    -0.22600
C1417       C  0.69224243  0.54878373  0.06323617     0.20400
C1418       C  0.71392277  0.52204503  0.05376679     0.25400
C1419       C  0.73075027  0.52933590  0.02593793    -0.22600
C1420       C  0.72635451  0.56477005  0.00828609     0.20300
F1421       F  0.74262880  0.57281672  0.48040662    -0.12500
F1422       F  0.70068880  0.62530686  0.99949465    -0.14900
F1423       F  0.71727514  0.48726325  0.07047408    -0.14900
F1424       F  0.67580714  0.53951064  0.08960116    -0.12500
C1425       C  0.33549218  0.71859977  0.44395187     0.25500
C1426       C  0.35670939  0.71343914  0.46822455    -0.22600
C1427       C  0.34799856  0.70721258  0.00054003     0.20400
C1428       C  0.31929571  0.71255898  0.00938443     0.25400
C1429       C  0.29925671  0.72617021  0.48615270    -0.22600
C1430       C  0.30685195  0.72570153  0.45300088     0.20300
F1431       F  0.28767704  0.73747986  0.43001580    -0.12500
F1432       F  0.34315444  0.72342167  0.41215277    -0.14900
F1433       F  0.31202758  0.71081652  0.04156126    -0.17300
F1434       F  0.36783513  0.70095652  0.02428790    -0.12500
C1435       C  0.18728180  0.69841714  0.45049846     0.25500
C1436       C  0.18682203  0.65889613  0.46227609    -0.22600
C1437       C  0.20971748  0.64585421  0.48219971     0.20400
C1438       C  0.23111328  0.67275087  0.99363866     0.25400
C1439       C  0.23105377  0.71265351  0.48133501    -0.22600
C1440       C  0.20900650  0.72496521  0.46017384     0.20300
F1441       F  0.20759493  0.76390214  0.45066558    -0.12500
F1442       F  0.16572028  0.71215591  0.43126551    -0.14900
F1443       F  0.25153410  0.66022603  0.01486838    -0.14900
F1444       F  0.20927499  0.60811430  0.99572951    -0.12500
C1445       C  0.19213461  0.93949005  0.49032984     0.25500
C1446       C  0.19116679  0.47152160  0.46293045    -0.22600
C1447       C  0.21082535  0.48207435  0.93951585     0.20400
C1448       C  0.23910035  0.97125680  0.95704546     0.25400
C1449       C  0.24263932  0.95779441  0.48714645    -0.22600
C1450       C  0.21975918  0.93891773  0.50359394     0.20300
F1451       F  0.22344990  0.92500579  0.53447640    -0.12500
F1452       F  0.16963530  0.92664700  0.50865927    -0.14900
F1453       F  0.25851862  0.50262604  0.92684675    -0.14900
F1454       F  0.20245458  0.49504109  0.90955577    -0.12500
C1455       C  0.72338380  0.94946052  0.24920815     0.25500
C1456       C  0.74489370  0.96773492  0.26838464    -0.22600
C1457       C  0.73931946  0.97635179  0.30134797     0.20400
C1458       C  0.71127977  0.47147065  0.31381849     0.25400
C1459       C  0.68877785  0.96085539  0.29241813    -0.22600
C1460       C  0.69531666  0.94677206  0.26094779     0.20300
F1461       F  0.67401267  0.93503127  0.24035568    -0.12500
F1462       F  0.72878180  0.93927230  0.21755979    -0.14900
F1463       F  0.70379430  0.47798695  0.34549510    -0.14900
F1464       F  0.75929839  0.49019501  0.32720005    -0.12500
C1465       C  0.85975667  0.94582163  0.30134708     0.25500
C1466       C  0.85688105  0.90417621  0.29758960    -0.22600
C1467       C  0.83058990  0.88832245  0.28637856     0.20400
C1468       C  0.80843306  0.91399362  0.27629079     0.25400
C1469       C  0.81282155  0.95577189  0.27620197    -0.22600
C1470       C  0.83788104  0.97135525  0.29086218     0.20300
F1471       F  0.84234280  0.01164002  0.29178002    -0.12500
F1472       F  0.88468575  0.96188600  0.31262347    -0.14900
F1473       F  0.78443028  0.89794990  0.26272779    -0.14900
F1474       F  0.82678427  0.84797148  0.28411511    -0.12500
C1475       C  0.83648398  0.71295886  0.30659717     0.25500
C1476       C  0.85978524  0.70977715  0.28468311    -0.22600
C1477       C  0.85439085  0.69954040  0.25198328     0.20400
C1478       C  0.82623850  0.69840389  0.24043340     0.25400
C1479       C  0.80328538  0.70981690  0.26101127    -0.22600
C1480       C  0.80826107  0.71388548  0.29469783     0.20300
F1481       F  0.78658671  0.72420874  0.31529532    -0.12500
F1482       F  0.84117916  0.72127742  0.33866337    -0.14900
F1483       F  0.82171910  0.69149016  0.20804352    -0.14900
F1484       F  0.87643842  0.69511128  0.23049652    -0.12500
C1485       C  0.30546810  0.50961703  0.20205406     0.25500
C1486       C  0.29682380  0.50659027  0.23478972    -0.22600
C1487       C  0.31669881  0.51554944  0.25972176     0.20400
C1488       C  0.33891114  0.02048805  0.24058165     0.25400
C1489       C  0.35140351  0.01098921  0.21028384    -0.22600
C1490       C  0.33341654  0.99911669  0.18411254     0.20300
F1491       F  0.34484005  0.98936560  0.15451610    -0.12500
F1492       F  0.28658849  0.50159991  0.17759701    -0.14900
F1493       F  0.35561902  0.03207461  0.26614666    -0.14900
F1494       F  0.30857675  0.51399086  0.29163966    -0.12500
C1495       C  0.17683983  0.47163169  0.28290783     0.25500
C1496       C  0.20476797  0.48716328  0.28504815    -0.22600
C1497       C  0.21136835  0.51587717  0.30901270     0.20400
C1498       C  0.19035780  0.53056056  0.32970646     0.25400
C1499       C  0.16226930  0.51513172  0.32829894    -0.22600
C1500       C  0.15560417  0.48529987  0.30477805     0.20300
F1501       F  0.12886022  0.46915969  0.30325790    -0.12500
F1502       F  0.16657310  0.95714806  0.24222285    -0.14900
F1503       F  0.19829401  0.55795513  0.35276320    -0.14900
F1504       F  0.23888632  0.52809448  0.31373484    -0.12500
C1505       C  0.16183159  0.76283647  0.05979042     0.25500
C1506       C  0.16664154  0.73140280  0.08215330    -0.22600
C1507       C  0.19399105  0.71355841  0.08363540     0.20400
C1508       C  0.21592360  0.72691187  0.06367911     0.25400
C1509       C  0.21110973  0.75758230  0.04111260    -0.22600
C1510       C  0.18408271  0.77574134  0.03910721     0.20300
F1511       F  0.17944487  0.80595877  0.01763338    -0.12500
F1512       F  0.13582564  0.78100342  0.05806312    -0.14900
F1513       F  0.24246699  0.71059629  0.06713895    -0.14900
F1514       F  0.20023793  0.68451780  0.10573127    -0.12500
C1515       C  0.22971165  0.56946350  0.24399645     0.25500
C1516       C  0.23072959  0.53147762  0.22895028    -0.22600
C1517       C  0.21206861  0.52331579  0.20281641     0.20400
C1518       C  0.19105677  0.55090613  0.19363089     0.25400
C1519       C  0.18781155  0.58723436  0.21095809    -0.22600
C1520       C  0.20806898  0.59688758  0.23551802     0.20300
F1521       F  0.20669672  0.63258621  0.25163996    -0.12500
F1522       F  0.24874401  0.57928420  0.26780914    -0.14900
F1523       F  0.17267520  0.54073288  0.16918838    -0.14900
F1524       F  0.21275755  0.48677823  0.18795119    -0.12500
C1525       C  0.21283651  0.76382174  0.19146955     0.25500
C1526       C  0.19304132  0.77073715  0.21712879    -0.22600
C1527       C  0.20350473  0.77654420  0.24897190     0.20400
C1528       C  0.23249986  0.76993345  0.25576427     0.25400
C1529       C  0.25121312  0.75631838  0.23100279    -0.22600
C1530       C  0.24176603  0.75599407  0.19850211     0.20300
F1531       F  0.25949559  0.74310071  0.17424845    -0.12500
F1532       F  0.20345650  0.75826626  0.16031457    -0.14900
F1533       F  0.24142864  0.77113901  0.28738867    -0.14900
F1534       F  0.18507856  0.78381316  0.27408862    -0.12500
C1535       C  0.74270842  0.74356424  0.06546147     0.25500
C1536       C  0.75291998  0.75321125  0.03421027    -0.22600
C1537       C  0.73451329  0.77274410  0.01215300     0.20400
C1538       C  0.70529453  0.77696744  0.01932000     0.25400
C1539       C  0.69435716  0.76333357  0.04923357    -0.22600
C1540       C  0.71364742  0.74932318  0.07320554     0.20300
F1541       F  0.70365620  0.73556511  0.10231565    -0.12500
F1542       F  0.75992833  0.72550745  0.58780722    -0.14900
F1543       F  0.68722538  0.79042564  0.99578896    -0.14900
F1544       F  0.74392896  0.78186859  0.98160928    -0.12500
C1545       C  0.86606128  0.73226336  0.47752650     0.25500
C1546       C  0.83716600  0.73164715  0.46783624    -0.22600
C1547       C  0.82938680  0.74621508  0.43698204     0.20400
C1548       C  0.85007508  0.76179071  0.41615936     0.25400
C1549       C  0.87909640  0.76143998  0.42519077    -0.22600
C1550       C  0.88713872  0.74641104  0.45589828     0.20300
F1551       F  0.91508973  0.74671926  0.46520678    -0.12500
F1552       F  0.87370777  0.71940773  0.50772504    -0.14900
F1553       F  0.84175980  0.77692024  0.38687663    -0.14900
F1554       F  0.80142830  0.74685089  0.42755051    -0.12500
C1555       C  0.87047221  0.94355972  0.19304373     0.25500
C1556       C  0.88835137  0.97425185  0.18120739    -0.22600
C1557       C  0.88256891  0.01438997  0.19012832     0.20400
C1558       C  0.85765459  0.02366219  0.20790543     0.25400
C1559       C  0.83833490  0.99301236  0.21628470    -0.22600
C1560       C  0.84497018  0.95303304  0.20849840     0.20300
F1561       F  0.82526043  0.92337936  0.21205672    -0.12500
F1562       F  0.87594688  0.90426308  0.18638901    -0.14900
F1563       F  0.85140796  0.06256815  0.21493897    -0.14900
F1564       F  0.89949382  0.04476835  0.17932263    -0.12500
C1565       C  0.85537254  0.80142090  0.06325997     0.25500
C1566       C  0.86152668  0.83474882  0.04323176    -0.22600
C1567       C  0.84444287  0.84064288  0.01506020     0.20400
C1568       C  0.82301050  0.81281281  0.00638822     0.25400
C1569       C  0.81808169  0.77875744  0.02567381    -0.22600
C1570       C  0.83392708  0.77393105  0.05450425     0.20300
F1571       F  0.83015598  0.74045898  0.07282175    -0.12500
F1572       F  0.87100757  0.79410732  0.09059268    -0.14900
F1573       F  0.80851072  0.81898116  0.47837130    -0.14900
F1574       F  0.84864777  0.87299335  0.99557094    -0.12500
C1575       C  0.84536047  0.03657047  0.01983835     0.25500
C1576       C  0.85590340  0.02343751  0.05002018    -0.22600
C1577       C  0.83627425  0.01118718  0.07435153     0.20400
C1578       C  0.80585108  0.50612242  0.06277455     0.25400
C1579       C  0.79733042  0.51018852  0.03010827    -0.22600
C1580       C  0.81767459  0.52539906  0.50632081     0.20300
F1581       F  0.80984061  0.52926738  0.47448253    -0.12500
F1582       F  0.86452985  0.05082734  0.49584580    -0.14900
F1583       F  0.78733158  0.49093496  0.08521052    -0.14900
F1584       F  0.84587389  0.99868271  0.10396725    -0.12500
C1585       C  0.05226428  0.59714800  0.59967167     0.82100
N1586       N  0.06531385  0.59767439  0.56966467    -0.76200
C1587       C  0.05458895  0.57602748  0.54416337     0.84500
N1588       N  0.03165758  0.55186688  0.54932071    -0.76200
C1589       C  0.01879721  0.54995257  0.57914764     0.84600
N1590       N  0.02889497  0.57300057  0.60445548    -0.77900
O1591       O  0.89494580  0.98487357  0.53078162    -0.76600
C1592       C  0.97715518  0.92204078  0.49418094     0.84400
O1593       O  0.89523485  0.86481957  0.58149099    -0.77700
O1594       O  0.99710901  0.88736897  0.60741666    -0.79200
O1595       O  0.97474505  0.03061911  0.58807557    -0.79000
O1596       O  0.90111601  0.01912012  0.57748337    -0.77600
Zn1597     Zn  0.92220635  0.93763605  0.53314695     1.55700
O1598       O  0.00656516  0.98326421  0.57400440    -0.79000
Cd1599     Cd  0.93862673  0.99487592  0.59528159     1.59700
Cd1600     Cd  0.92461084  0.90287197  0.60371419     1.59600
O1601       O  0.92874247  0.99031292  0.64439814    -0.79000
O1602       O  0.94296784  0.94087340  0.57395849    -1.89500
Cd1603     Cd  0.98444520  0.92881267  0.56958193     1.59900
O1604       O  0.90265990  0.93511147  0.63741130    -0.79000
O1605       O  0.99202901  0.91464136  0.51989745    -0.77600
C1606       C  0.88517984  0.86495180  0.55251306     0.84900
C1607       C  0.88656576  0.01064158  0.55201643     0.84600
O1608       O  0.95082923  0.93281145  0.49565921    -0.76600
C1609       C  0.00002614  0.01992153  0.57974525     0.85400
O1610       O  0.89450238  0.88991683  0.53143267    -0.76700
C1611       C  0.90887472  0.96664934  0.65360122     0.85500
C1612       C  0.98191794  0.87058973  0.62991478     0.85800
O1613       O  0.95471967  0.87347685  0.63054269    -0.79100
N1614       N  0.80329921  0.74422542  0.01260648    -0.01600
C1615       C  0.77672311  0.73179927  0.52069664     0.01000
C1616       C  0.77149909  0.69517351  0.00219620    -0.21900
C1617       C  0.79514371  0.68839823  0.98283654    -0.22100
C1618       C  0.81414807  0.71917800  0.98955235     0.00900
H1619       H  0.75134504  0.67884124  0.00097368     0.14700
H1620       H  0.79704717  0.66598626  0.96373507     0.14700
C1621       C  0.99492425  0.84848189  0.65765917     0.82100
N1622       N  0.98092132  0.84891936  0.68716931    -0.76200
C1623       C  0.99123445  0.82793794  0.71307180     0.84500
N1624       N  0.01476126  0.80464575  0.70875664    -0.76200
C1625       C  0.02852132  0.80289326  0.67944468     0.84600
N1626       N  0.01879341  0.82518884  0.65380766    -0.77900
O1627       O  0.15268240  0.73374947  0.73105964    -0.76600
C1628       C  0.07012444  0.67116493  0.76177732     0.84400
O1629       O  0.15351346  0.61569559  0.67344255    -0.77700
O1630       O  0.05112794  0.63800107  0.64920126    -0.79200
O1631       O  0.07674575  0.78256213  0.66916313    -0.79000
O1632       O  0.15014483  0.76816361  0.68446850    -0.77600
Zn1633     Zn  0.12608815  0.68645123  0.72429899     1.55700
O1634       O  0.04362834  0.73562676  0.68002110    -0.79000
Cd1635     Cd  0.11283309  0.74616914  0.66355087     1.59700
Cd1636     Cd  0.12389235  0.65314210  0.65162614     1.59600
O1637       O  0.12535593  0.74405271  0.61506985    -0.79000
O1638       O  0.10640048  0.69139403  0.68254965    -1.89500
Cd1639     Cd  0.06449712  0.68065577  0.68607887     1.59900
O1640       O  0.14672935  0.68476863  0.61819028    -0.79000
O1641       O  0.05531874  0.66734235  0.73546436    -0.77600
C1642       C  0.16413750  0.61617937  0.70216056     0.84900
C1643       C  0.16312073  0.75884898  0.71075881     0.84600
O1644       O  0.09699566  0.67904625  0.76122098    -0.76600
C1645       C  0.05088151  0.77218253  0.67518787     0.85400
O1646       O  0.15484845  0.64041248  0.72399814    -0.76700
C1647       C  0.14412910  0.71908346  0.60511638     0.85500
C1648       C  0.06588735  0.62021879  0.62676092     0.85800
O1649       O  0.09310838  0.62309019  0.62550083    -0.79100
N1650       N  0.24368251  0.49873273  0.74418179    -0.01600
C1651       C  0.27098899  0.48484967  0.74406005     0.01000
C1652       C  0.27255370  0.45002281  0.76238258    -0.21900
C1653       C  0.24578015  0.44347782  0.77538513    -0.22100
C1654       C  0.22868099  0.47430691  0.76440646     0.00900
H1655       H  0.29585480  0.92857911  0.75517171     0.14700
H1656       H  0.24045662  0.42188768  0.79418492     0.14700
C1657       C  0.05244456  0.64923536  0.84918660     0.82100
N1658       N  0.06588445  0.64865022  0.81938422    -0.76200
C1659       C  0.05520954  0.66974336  0.79375938     0.84500
N1660       N  0.03197262  0.69336567  0.79860266    -0.76200
C1661       C  0.01879302  0.69527713  0.82822413     0.84600
N1662       N  0.02876046  0.67275503  0.85360774    -0.77900
O1663       O  0.94895352  0.81827595  0.74524723    -0.76600
C1664       C  0.88715310  0.73052902  0.79327861     0.84400
O1665       O  0.89245236  0.88075388  0.83351949    -0.77700
O1666       O  0.92044071  0.75243353  0.89185656    -0.79200
O1667       O  0.00276377  0.76203984  0.82649573    -0.79000
O1668       O  0.99040208  0.82990974  0.77134852    -0.77600
Zn1669     Zn  0.91972342  0.80863474  0.78229928     1.55700
O1670       O  0.97076505  0.71472228  0.83983384    -0.79000
Cd1671     Cd  0.98081098  0.81599927  0.82040800     1.59700
Cd1672     Cd  0.92069975  0.84149996  0.85546265     1.59600
O1673       O  0.99334937  0.85854259  0.85715573    -0.79000
O1674       O  0.93907150  0.80410711  0.82411795    -1.89500
Cd1675     Cd  0.93384517  0.74941544  0.84367070     1.59900
O1676       O  0.95153754  0.87032064  0.88250701    -0.79000
O1677       O  0.89919574  0.72269959  0.82046869    -0.77600
C1678       C  0.88079610  0.87826326  0.80542586     0.84900
C1679       C  0.97583267  0.82634722  0.74488279     0.84600
O1680       O  0.89576900  0.75884625  0.77475127    -0.76600
C1681       C  0.99624897  0.72556848  0.83266656     0.85400
O1682       O  0.88924650  0.85279288  0.78402137    -0.76700
C1683       C  0.97864007  0.87467256  0.88039072     0.85500
C1684       C  0.90026970  0.77564865  0.90098036     0.85800
O1685       O  0.89593037  0.80935264  0.88742967    -0.79100
N1686       N  0.79730713  0.98129873  0.75246567    -0.01600
C1687       C  0.76878063  0.98794554  0.74875134     0.01000
C1688       C  0.76405750  0.01376270  0.72282955    -0.21900
C1689       C  0.79032039  0.02215344  0.70929915    -0.22100
C1690       C  0.81013673  0.00120530  0.72745679     0.00900
H1691       H  0.74351218  0.02377484  0.71372177     0.14700
H1692       H  0.79423042  0.03884938  0.68720887     0.14700
C1693       C  0.99243831  0.89809362  0.90696331     0.82100
N1694       N  0.97984478  0.89811637  0.93716801    -0.76200
C1695       C  0.99104374  0.92010911  0.96216474     0.84500
N1696       N  0.01400412  0.94404198  0.95633001    -0.76200
C1697       C  0.02642869  0.94520162  0.92621783     0.84600
N1698       N  0.01588369  0.92175532  0.90148019    -0.77900
O1699       O  0.09564922  0.56703842  0.01084725    -0.76600
C1700       C  0.16060021  0.48638192  0.95876497     0.84400
O1701       O  0.15284834  0.63243915  0.92481238    -0.77700
O1702       O  0.12232789  0.50451711  0.86324836    -0.79200
O1703       O  0.04163224  0.51272424  0.92904532    -0.79000
O1704       O  0.05413906  0.58054032  0.98546073    -0.77600
Zn1705     Zn  0.12482761  0.56014219  0.97388729     1.55700
O1706       O  0.07415646  0.96431691  0.91218517    -0.79000
Cd1707     Cd  0.06325099  0.56727299  0.93579326     1.59700
Cd1708     Cd  0.12348582  0.59430950  0.90196727     1.59600
O1709       O  0.05065141  0.60955848  0.89883792    -0.79000
O1710       O  0.10510635  0.55613537  0.93214184    -1.89500
Cd1711     Cd  0.11055851  0.50160621  0.91191124     1.59900
O1712       O  0.09294773  0.62386534  0.87560391    -0.79000
O1713       O  0.14729449  0.47784624  0.93241482    -0.77600
C1714       C  0.16301824  0.63136811  0.95376928     0.84900
C1715       C  0.06891510  0.57571311  0.01166095     0.84600
O1716       O  0.15126594  0.51240894  0.97921970    -0.76600
C1717       C  0.04895376  0.97536210  0.92052518     0.85400
O1718       O  0.15352776  0.60642244  0.97474600    -0.76700
C1719       C  0.06572949  0.62674978  0.87649714     0.85500
C1720       C  0.14168423  0.52868107  0.85355232     0.85800
O1721       O  0.14585486  0.56223935  0.86782836    -0.79100
N1722       N  0.24721157  0.74352596  0.49808181    -0.01600
C1723       C  0.27566970  0.75193820  0.49812269     0.01000
C1724       C  0.28103425  0.78482174  0.51817299    -0.21900
C1725       C  0.25539759  0.79549546  0.53225930    -0.22100
C1726       C  0.23523027  0.76903661  0.52011854     0.00900
H1727       H  0.30188642  0.79696575  0.52456266     0.14700
H1728       H  0.25261085  0.81641516  0.55242412     0.14700
C1729       C  0.49480378  0.84559174  0.59876166     0.82100
N1730       N  0.51837015  0.82186597  0.60283793    -0.76200
C1731       C  0.52804911  0.79881443  0.57737968     0.84500
N1732       N  0.51453400  0.80021575  0.54795952    -0.76200
C1733       C  0.49129849  0.82395535  0.54339105     0.84600
N1734       N  0.48101348  0.84569377  0.56915838    -0.77900
O1735       O  0.59631514  0.67740340  0.49809433    -0.76600
C1736       C  0.66382990  0.75334718  0.55283138     0.84400
O1737       O  0.65422614  0.61216964  0.58326302    -0.77700
O1738       O  0.61817456  0.73699996  0.64559438    -0.79200
O1739       O  0.54272771  0.73122806  0.57829742    -0.79000
O1740       O  0.55521423  0.66143054  0.52380052    -0.77600
Zn1741     Zn  0.62568434  0.68349257  0.53463427     1.55700
O1742       O  0.57610223  0.77829529  0.58778166    -0.79000
Cd1743     Cd  0.56390428  0.67611417  0.57306569     1.59700
Cd1744     Cd  0.62397963  0.64900158  0.60584432     1.59600
O1745       O  0.55138672  0.63482845  0.61102186    -0.79000
O1746       O  0.60561091  0.68686990  0.57596877    -1.89500
Cd1747     Cd  0.61111114  0.74106252  0.59608530     1.59900
O1748       O  0.59386927  0.61857554  0.63264939    -0.79000
O1749       O  0.65033141  0.76136325  0.57919384    -0.77600
C1750       C  0.66366001  0.61221116  0.55393671     0.84900
C1751       C  0.56979793  0.66733021  0.49755874     0.84600
O1752       O  0.65326186  0.73060617  0.53058833    -0.76600
C1753       C  0.55019025  0.76795993  0.58205936     0.85400
O1754       O  0.65348168  0.63636562  0.53283260    -0.76700
C1755       C  0.56658296  0.61678758  0.63275144     0.85500
C1756       C  0.63718660  0.71314306  0.65631348     0.85800
O1757       O  0.64457035  0.68182431  0.64042124    -0.79100
N1758       N  0.74645615  0.49623910  0.01192566    -0.01600
C1759       C  0.77444654  0.48531793  0.51630568     0.01000
C1760       C  0.78005264  0.45082348  0.99853901    -0.21900
C1761       C  0.75575291  0.44174304  0.98097185    -0.22100
C1762       C  0.73566490  0.47040375  0.98941525     0.00900
H1763       H  0.80096603  0.93919512  0.00035252     0.14700
H1764       H  0.75404707  0.41969891  0.96163865     0.14700
C1765       C  0.55330588  0.59446943  0.66034681     0.82100
N1766       N  0.56671738  0.59503899  0.69018569    -0.76200
C1767       C  0.55583647  0.57405078  0.71590118     0.84500
N1768       N  0.53245913  0.55053776  0.71101386    -0.76200
C1769       C  0.51932215  0.54863473  0.68137752     0.84600
N1770       N  0.52954332  0.57100784  0.65599130    -0.77900
O1771       O  0.45114095  0.92861634  0.76211277    -0.76600
C1772       C  0.38418752  0.00435396  0.70784718     0.84400
O1773       O  0.39585750  0.86096522  0.67554664    -0.77700
O1774       O  0.42504107  0.98790018  0.61424474    -0.79200
O1775       O  0.50513430  0.98211065  0.68219381    -0.79000
O1776       O  0.49250488  0.91312668  0.73678311    -0.77600
Zn1777     Zn  0.42217954  0.93375003  0.72494986     1.55700
O1778       O  0.47236846  0.02881400  0.66985905    -0.79000
Cd1779     Cd  0.48403195  0.92697376  0.68718989     1.59700
Cd1780     Cd  0.42441102  0.89967552  0.65352726     1.59600
O1781       O  0.49683332  0.88522426  0.64906259    -0.79000
O1782       O  0.44232680  0.93807483  0.68361388    -1.89500
Cd1783     Cd  0.43636370  0.99206767  0.66318056     1.59900
O1784       O  0.45453445  0.87091053  0.62594154    -0.79000
O1785       O  0.39825169  0.01377566  0.68225719    -0.77600
C1786       C  0.38579249  0.86101040  0.70451790     0.84900
C1787       C  0.47771478  0.91898651  0.76295764     0.84600
O1788       O  0.39387955  0.97967923  0.72894314    -0.76600
C1789       C  0.49803129  0.01863962  0.67706956     0.85400
O1790       O  0.39496111  0.88582380  0.72597298    -0.76700
C1791       C  0.48172790  0.86816768  0.62649805     0.85500
C1792       C  0.40579664  0.96305087  0.60513815     0.85800
O1793       O  0.40113643  0.93085356  0.62078579    -0.79100
N1794       N  0.30355660  0.74354328  0.74309989    -0.01600
C1795       C  0.27578960  0.73213342  0.74023922     0.01000
C1796       C  0.27124876  0.69708078  0.75754569    -0.21900
C1797       C  0.29673312  0.68761581  0.77247703    -0.22100
C1798       C  0.31603929  0.71709378  0.76367595     0.00900
H1799       H  0.25079113  0.68261325  0.76191305     0.14700
H1800       H  0.29969318  0.66503012  0.79115547     0.14700
C1801       C  0.55265030  0.64311947  0.91049278     0.82100
N1802       N  0.56552480  0.64318299  0.94050576    -0.76200
C1803       C  0.55456678  0.66510150  0.96569195     0.84500
N1804       N  0.53158057  0.68892762  0.96026627    -0.76200
C1805       C  0.51890327  0.69014018  0.93038244     0.84600
N1806       N  0.52920291  0.66681796  0.90539029    -0.77900
O1807       O  0.39559487  0.75601354  0.98114701    -0.76600
C1808       C  0.47599387  0.82267712  0.01166102     0.84400
O1809       O  0.39153829  0.87451535  0.92165639    -0.77700
O1810       O  0.49470157  0.85433582  0.89936734    -0.79200
O1811       O  0.47096755  0.70951817  0.91856906    -0.79000
O1812       O  0.39828336  0.72047013  0.93477519    -0.77600
Zn1813     Zn  0.42032700  0.80492592  0.97358992     1.55700
O1814       O  0.50336537  0.75725267  0.93018755    -0.79000
Cd1815     Cd  0.43441986  0.74449197  0.91275764     1.59700
Cd1816     Cd  0.42189132  0.83699996  0.90021342     1.59600
O1817       O  0.42196405  0.74504785  0.86413463    -0.79000
O1818       O  0.43988958  0.79987054  0.93170401    -1.89500
Cd1819     Cd  0.48166914  0.81174816  0.93590155     1.59900
O1820       O  0.39965690  0.80394018  0.86632595    -0.79000
O1821       O  0.49078435  0.82597028  0.98529481    -0.77600
C1822       C  0.38038821  0.87272581  0.95010207     0.84900
C1823       C  0.38582927  0.72923087  0.96164158     0.84600
O1824       O  0.44910478  0.81474604  0.01102751    -0.76600
C1825       C  0.49656281  0.72049636  0.92519561     0.85400
O1826       O  0.38987806  0.84876009  0.97179496    -0.76700
C1827       C  0.40311555  0.76933543  0.85356807     0.85500
C1828       C  0.48004656  0.87136641  0.87667699     0.85800
O1829       O  0.45289686  0.86747371  0.87473911    -0.79100
N1830       N  0.29433560  0.97045812  0.50469842    -0.01600
C1831       C  0.26557614  0.97601373  0.50721668     0.01000
C1832       C  0.25938652  0.00111192  0.53345673    -0.21900
C1833       C  0.28498721  0.01038342  0.54823547    -0.22100
C1834       C  0.30590987  0.99062200  0.53052915     0.00900
H1835       H  0.23838540  0.01043129  0.54164645     0.14700
H1836       H  0.28778287  0.02722467  0.57066885     0.14700
C1837       C  0.49386318  0.89494202  0.85021294     0.82100
N1838       N  0.51755933  0.91830515  0.85557436    -0.76200
C1839       C  0.52810614  0.94151847  0.83081315     0.84500
N1840       N  0.51539360  0.94049029  0.80089529    -0.76200
C1841       C  0.49215844  0.91704125  0.79516838     0.84600
N1842       N  0.48100136  0.89524156  0.82015818    -0.77900
O1843       O  0.64978206  0.50468428  0.77760110    -0.76600
C1844       C  0.57067975  0.57227520  0.74804166     0.84400
O1845       O  0.65403998  0.62635105  0.83705544    -0.77700
O1846       O  0.55178624  0.60309263  0.86075694    -0.79200
O1847       O  0.57599873  0.96132369  0.84407182    -0.79000
O1848       O  0.64842155  0.47121576  0.82472665    -0.77600
Zn1849     Zn  0.62618692  0.55431194  0.78594001     1.55700
O1850       O  0.54328009  0.50608242  0.82955398    -0.79000
Cd1851     Cd  0.61226436  0.49499219  0.84705359     1.59700
Cd1852     Cd  0.62466094  0.58784170  0.85861794     1.59600
O1853       O  0.62571604  0.49785014  0.89525756    -0.79000
O1854       O  0.60654560  0.54970818  0.82764627    -1.89500
Cd1855     Cd  0.56473435  0.56078115  0.82371954     1.59900
O1856       O  0.64896767  0.55584813  0.89072923    -0.79000
O1857       O  0.55566979  0.57478544  0.77435056    -0.77600
C1858       C  0.66630627  0.62258824  0.80933148     0.84900
C1859       C  0.66024842  0.47909294  0.79737810     0.84600
O1860       O  0.59761998  0.56492270  0.74873193    -0.76600
C1861       C  0.55058652  0.97193202  0.83628344     0.85400
O1862       O  0.65748381  0.59714838  0.78813438    -0.76700
C1863       C  0.64565990  0.52174620  0.90401740     0.85500
C1864       C  0.56646060  0.62001673  0.88366839     0.85800
O1865       O  0.59364578  0.61662947  0.88538809    -0.79100
N1866       N  0.74957216  0.72132575  0.75210643    -0.01600
C1867       C  0.77776508  0.72797546  0.74542998     0.01000
C1868       C  0.78042504  0.75444005  0.71951190    -0.21900
C1869       C  0.75330079  0.76312791  0.70899663    -0.22100
C1870       C  0.73488261  0.74194014  0.72888573     0.00900
H1871       H  0.80012377  0.76527577  0.70867301     0.14700
H1872       H  0.74773633  0.78078696  0.68776787     0.14700
C1873       C  0.69163703  0.68902780  0.80781964     0.25500
C1874       C  0.69179942  0.64755325  0.80166115    -0.22600
C1875       C  0.71633000  0.63018403  0.78707956     0.20400
C1876       C  0.73876182  0.65452801  0.77540433     0.25400
C1877       C  0.73604919  0.69653557  0.77665542    -0.22600
C1878       C  0.71357081  0.71330157  0.79533350     0.20300
F1879       F  0.71120864  0.75379736  0.79809092    -0.12500
F1880       F  0.66892861  0.70651294  0.82309243    -0.14900
F1881       F  0.76043480  0.63744908  0.75803811    -0.14900
F1882       F  0.71778601  0.58982689  0.78246351    -0.12500
C1883       C  0.30708156  0.90457898  0.98127108     0.25500
C1884       C  0.31034886  0.94651519  0.98263428    -0.22600
C1885       C  0.33453024  0.96397422  0.96755544     0.20400
C1886       C  0.35675643  0.93995612  0.95523791     0.25400
C1887       C  0.35522982  0.89808051  0.95803308    -0.22600
C1888       C  0.32969726  0.88047635  0.96972554     0.20300
F1889       F  0.32726500  0.83990922  0.97143529    -0.12500
F1890       F  0.28400926  0.88688197  0.99549981    -0.14900
F1891       F  0.38082111  0.95767140  0.94329245    -0.14900
F1892       F  0.33783404  0.00447567  0.96785485    -0.12500
C1893       C  0.36844407  0.71787310  0.78006433     0.25500
C1894       C  0.33975902  0.72903655  0.78525000    -0.22600
C1895       C  0.33250457  0.75328212  0.81208809     0.20400
C1896       C  0.35348552  0.76725638  0.83319180     0.25400
C1897       C  0.38230560  0.75617214  0.82864689    -0.22600
C1898       C  0.38973155  0.73095180  0.80211004     0.20300
F1899       F  0.41739024  0.71952068  0.79739928    -0.12500
F1900       F  0.37566571  0.69433665  0.75411849    -0.14900
F1901       F  0.34525895  0.79028948  0.85910493    -0.14900
F1902       F  0.30468868  0.76319393  0.81806529    -0.12500
C1903       C  0.37749646  0.01119117  0.57092642     0.25500
C1904       C  0.38631052  0.97168799  0.57774561    -0.22600
C1905       C  0.37098934  0.93933302  0.56405346     0.20400
C1906       C  0.34505025  0.94587365  0.54858133     0.25400
C1907       C  0.33540370  0.98503596  0.54274128    -0.22600
C1908       C  0.35220758  0.01779724  0.55316248     0.20300
F1909       F  0.34302245  0.05596719  0.54829943    -0.12500
F1910       F  0.39168013  0.04311999  0.58395000    -0.14900
F1911       F  0.32772875  0.91373527  0.54348793    -0.14900
F1912       F  0.37933690  0.90075489  0.56903238    -0.12500
C1913       C  0.35812296  0.79730672  0.69424196     0.25500
C1914       C  0.36226169  0.83253411  0.71290408    -0.22600
C1915       C  0.34286457  0.84094398  0.73868039     0.20400
C1916       C  0.32093163  0.81367310  0.74657736     0.25400
C1917       C  0.31829041  0.77739242  0.72923757    -0.22600
C1918       C  0.33646558  0.77011271  0.70248426     0.20300
F1919       F  0.33442719  0.73489205  0.68575151    -0.12500
F1920       F  0.37596590  0.78796191  0.66902443    -0.14900
F1921       F  0.30313416  0.82179707  0.77203931    -0.14900
F1922       F  0.34520844  0.87536728  0.75643921    -0.12500
C1923       C  0.71826000  0.50253774  0.93967540     0.25500
C1924       C  0.71166489  0.48095093  0.96801288    -0.22600
C1925       C  0.68297123  0.47291452  0.97605919     0.20400
C1926       C  0.66093301  0.48606771  0.95532961     0.25400
C1927       C  0.66765538  0.50849569  0.92724915    -0.22600
C1928       C  0.69651758  0.51684321  0.91982754     0.20300
F1929       F  0.70382742  0.53809177  0.89276597    -0.12500
F1930       F  0.74599376  0.51056779  0.93161050    -0.14900
F1931       F  0.63319571  0.47789909  0.96301257    -0.14900
F1932       F  0.67727809  0.95503638  0.00641048    -0.12500
C1933       C  0.66211643  0.76199606  0.69309180     0.25500
C1934       C  0.65345867  0.72239805  0.68609137    -0.22600
C1935       C  0.66770575  0.69038674  0.70105331     0.20400
C1936       C  0.69406537  0.69687549  0.71558729     0.25400
C1937       C  0.70430437  0.73609907  0.72072708    -0.22600
C1938       C  0.68724294  0.76879122  0.71108888     0.20300
F1939       F  0.69663652  0.80702228  0.71567072    -0.12500
F1940       F  0.64856316  0.79364899  0.67917506    -0.14900
F1941       F  0.71146677  0.66465374  0.71857213    -0.14900
F1942       F  0.65888866  0.65187653  0.69616196    -0.12500
C1943       C  0.70499887  0.59224730  0.51688105     0.25500
C1944       C  0.68743820  0.58437788  0.54441000    -0.22600
C1945       C  0.69331919  0.54995617  0.56314536     0.20400
C1946       C  0.71496420  0.52320665  0.55362182     0.25400
C1947       C  0.73145631  0.53016631  0.52548648    -0.22600
C1948       C  0.72682091  0.56538022  0.50761029     0.20300
F1949       F  0.74244271  0.57246647  0.98134609    -0.12500
F1950       F  0.70094451  0.62571983  0.49867083    -0.14900
F1951       F  0.71855867  0.48865666  0.57057726    -0.14900
F1952       F  0.67717357  0.54090128  0.58979053    -0.12500
C1953       C  0.33544495  0.71921585  0.94391736     0.25500
C1954       C  0.35666831  0.71375440  0.96813741    -0.22600
C1955       C  0.34802895  0.70742672  0.50069097     0.20400
C1956       C  0.31934681  0.71303016  0.50948710     0.25400
C1957       C  0.29919916  0.72602410  0.98618562    -0.22600
C1958       C  0.30679928  0.72608637  0.95303776     0.20300
F1959       F  0.28762139  0.73823238  0.93018482    -0.12500
F1960       F  0.34309831  0.72461792  0.91217364    -0.14900
F1961       F  0.31207937  0.71171247  0.54167948    -0.17300
F1962       F  0.36785549  0.70146787  0.52450302    -0.12500
C1963       C  0.18803856  0.69813945  0.95053135     0.25500
C1964       C  0.18689496  0.65895971  0.96303206    -0.22600
C1965       C  0.20906160  0.64621882  0.98414225     0.20400
C1966       C  0.23183441  0.67244132  0.49138363     0.25400
C1967       C  0.23106225  0.71258218  0.98262835    -0.22600
C1968       C  0.20970755  0.72463421  0.96049512     0.20300
F1969       F  0.20894301  0.76327847  0.95015035    -0.12500
F1970       F  0.16719534  0.71164752  0.93019589    -0.14900
F1971       F  0.25298863  0.65956362  0.51151337    -0.14900
F1972       F  0.21055323  0.60739803  0.49295173    -0.12500
C1973       C  0.19137430  0.94341082  0.99226192     0.25500
C1974       C  0.19014789  0.47158618  0.96324106    -0.22600
C1975       C  0.21162652  0.48132813  0.43876529     0.20400
C1976       C  0.23870889  0.97033973  0.45481076     0.25400
C1977       C  0.24240770  0.95858910  0.98945601    -0.22600
C1978       C  0.21884665  0.94116268  0.00575036     0.20300
F1979       F  0.22185842  0.92716482  0.03670390    -0.12500
F1980       F  0.16834038  0.93219173  0.01044440    -0.14900
F1981       F  0.25932363  0.50084448  0.42507054    -0.14900
F1982       F  0.20298634  0.49393202  0.40880495    -0.12500
C1983       C  0.72272211  0.95121274  0.74785368     0.25500
C1984       C  0.74480119  0.96897922  0.76650410    -0.22600
C1985       C  0.73979349  0.97817490  0.79950118     0.20400
C1986       C  0.71099742  0.47034059  0.81410955     0.25400
C1987       C  0.68894916  0.96349139  0.79181222    -0.22600
C1988       C  0.69483112  0.94917360  0.76023457     0.20300
F1989       F  0.67307749  0.93762799  0.74018735    -0.12500
F1990       F  0.72746648  0.94060586  0.71615827    -0.14900
F1991       F  0.70383964  0.47675023  0.84590439    -0.14900
F1992       F  0.75916385  0.48909367  0.82681393    -0.12500
C1993       C  0.85934547  0.94670799  0.80115366     0.25500
C1994       C  0.85644924  0.90501405  0.79775358    -0.22600
C1995       C  0.83011996  0.88907259  0.78673470     0.20400
C1996       C  0.80805680  0.91465181  0.77621120     0.25400
C1997       C  0.81259866  0.95639054  0.77547149    -0.22600
C1998       C  0.83755186  0.97214984  0.79025426     0.20300
F1999       F  0.84209024  0.01242550  0.79071720    -0.12500
F2000       F  0.88426086  0.96286818  0.81237219    -0.14900
F2001       F  0.78411928  0.89845863  0.76261124    -0.14900
F2002       F  0.82624615  0.84870454  0.78490624    -0.12500
C2003       C  0.83651573  0.71466141  0.80658240     0.25500
C2004       C  0.85981241  0.71084307  0.78474196    -0.22600
C2005       C  0.85443506  0.69992032  0.75219036     0.20400
C2006       C  0.82627861  0.69843167  0.74066130     0.25400
C2007       C  0.80328980  0.71008701  0.76110250    -0.22600
C2008       C  0.80829419  0.71517204  0.79469289     0.20300
F2009       F  0.78663657  0.72615375  0.81509119    -0.12500
F2010       F  0.84121941  0.72399810  0.83846163    -0.14900
F2011       F  0.82177205  0.69087684  0.70836289    -0.14900
F2012       F  0.87649836  0.69507290  0.73078384    -0.12500
C2013       C  0.30566266  0.51066629  0.70187783     0.25500
C2014       C  0.29713205  0.50719159  0.73463130    -0.22600
C2015       C  0.31717094  0.51555879  0.75953224     0.20400
C2016       C  0.34228717  0.02668282  0.74123924     0.25400
C2017       C  0.35374375  0.01625972  0.71062607    -0.22600
C2018       C  0.33482598  0.00513106  0.68512581     0.20300
F2019       F  0.34525084  0.99484470  0.65516717    -0.12500
F2020       F  0.28663862  0.50327106  0.67744118    -0.14900
F2021       F  0.35993795  0.03777238  0.76611271    -0.14900
F2022       F  0.30919563  0.51363220  0.79148299    -0.12500
C2023       C  0.17665890  0.47272006  0.78236498     0.25500
C2024       C  0.20435241  0.48917976  0.78386687    -0.22600
C2025       C  0.21065288  0.51884381  0.80716009     0.20400
C2026       C  0.18963912  0.53325108  0.82797744     0.25400
C2027       C  0.16185627  0.51666681  0.82740740    -0.22600
C2028       C  0.15542581  0.48619713  0.80433266     0.20300
F2029       F  0.12895242  0.46914057  0.80341767    -0.12500
F2030       F  0.17142121  0.95478375  0.74691901    -0.14900
F2031       F  0.19740413  0.56145781  0.85045082    -0.14900
F2032       F  0.23799717  0.53203360  0.81138381    -0.12500
C2033       C  0.16130911  0.76343762  0.55896744     0.25500
C2034       C  0.16556600  0.73080779  0.58033979    -0.22600
C2035       C  0.19243370  0.71145112  0.58070070     0.20400
C2036       C  0.21452586  0.72484547  0.56102060     0.25400
C2037       C  0.21032270  0.75692401  0.53963054    -0.22600
C2038       C  0.18370438  0.77633735  0.53847610     0.20300
F2039       F  0.17963936  0.80783748  0.51809944    -0.12500
F2040       F  0.13576162  0.78293197  0.55815042    -0.14900
F2041       F  0.24073385  0.70734340  0.56386176    -0.14900
F2042       F  0.19820609  0.68092005  0.60159889    -0.12500
C2043       C  0.23072159  0.57098271  0.74198750     0.25500
C2044       C  0.23101661  0.53250082  0.72775072    -0.22600
C2045       C  0.21166952  0.52388541  0.70236246     0.20400
C2046       C  0.19065665  0.55151060  0.69330389     0.25400
C2047       C  0.18811455  0.58836496  0.71000150    -0.22600
C2048       C  0.20904623  0.59846307  0.73367918     0.20300
F2049       F  0.20826516  0.63463163  0.74912498    -0.12500
F2050       F  0.25044295  0.58121721  0.76494825    -0.14900
F2051       F  0.17153674  0.54086656  0.66974371    -0.14900
F2052       F  0.21164053  0.48687331  0.68828126    -0.12500
C2053       C  0.21308969  0.76324162  0.68985871     0.25500
C2054       C  0.19334280  0.77122203  0.71536189    -0.22600
C2055       C  0.20385268  0.77811404  0.74704448     0.20400
C2056       C  0.23286626  0.77177441  0.75394295     0.25400
C2057       C  0.25156650  0.75730729  0.72948638    -0.22600
C2058       C  0.24203259  0.75566601  0.69703058     0.20300
F2059       F  0.25969600  0.74175465  0.67308575    -0.12500
F2060       F  0.20364539  0.75648016  0.65887830    -0.14900
F2061       F  0.24182029  0.77405899  0.78552315    -0.14900
F2062       F  0.18545945  0.78628408  0.77200990    -0.12500
C2063       C  0.74274007  0.74517807  0.56643010     0.25500
C2064       C  0.75302380  0.75508429  0.53526553    -0.22600
C2065       C  0.73466375  0.77479753  0.51326276     0.20400
C2066       C  0.70539795  0.77873904  0.52029445     0.25400
C2067       C  0.69439399  0.76469968  0.55004803    -0.22600
C2068       C  0.71364166  0.75070324  0.57406451     0.20300
F2069       F  0.70359307  0.73667344  0.60306237    -0.12500
F2070       F  0.75993183  0.72401608  0.08687682    -0.14900
F2071       F  0.68737262  0.79229990  0.49675977    -0.14900
F2072       F  0.74416905  0.78425177  0.48282359    -0.12500
C2073       C  0.86632260  0.73102662  0.97681469     0.25500
C2074       C  0.83739506  0.73073697  0.96724939    -0.22600
C2075       C  0.82952729  0.74615675  0.93671178     0.20400
C2076       C  0.85015178  0.76227496  0.91608989     0.25400
C2077       C  0.87922200  0.76150215  0.92491523    -0.22600
C2078       C  0.88735009  0.74562420  0.95531435     0.20300
F2079       F  0.91533962  0.74553879  0.96447313    -0.12500
F2080       F  0.87404822  0.71742215  0.00676523    -0.14900
F2081       F  0.84171353  0.77832146  0.88718627    -0.14900
F2082       F  0.80153752  0.74706944  0.92741718    -0.12500
C2083       C  0.87371470  0.94517730  0.69478583     0.25500
C2084       C  0.89030987  0.97640301  0.68163392    -0.22600
C2085       C  0.88320469  0.01648077  0.68924309     0.20400
C2086       C  0.85796771  0.02492933  0.70667948     0.25400
C2087       C  0.83959807  0.99346959  0.71591432    -0.22600
C2088       C  0.84777947  0.95361971  0.70971652     0.20300
F2089       F  0.82910318  0.92283229  0.71385317    -0.12500
F2090       F  0.88066529  0.90605950  0.68937620    -0.14900
F2091       F  0.85034315  0.06370160  0.71224886    -0.14900
F2092       F  0.89896575  0.04735833  0.67717523    -0.12500
C2093       C  0.85525710  0.80324454  0.56388527     0.25500
C2094       C  0.86169135  0.83621135  0.54357267    -0.22600
C2095       C  0.84485395  0.84179647  0.51517214     0.20400
C2096       C  0.82337297  0.81402218  0.50658043     0.25400
C2097       C  0.81815943  0.78030411  0.52615569    -0.22600
C2098       C  0.83376411  0.77578591  0.55519590     0.20300
F2099       F  0.82971212  0.74263107  0.57381663    -0.12500
F2100       F  0.87066138  0.79624017  0.59144429    -0.14900
F2101       F  0.80792294  0.81806092  0.97837083    -0.14900
F2102       F  0.84935393  0.87378594  0.49537519    -0.12500
C2103       C  0.84617166  0.03826784  0.51950832     0.25500
C2104       C  0.85677734  0.02498863  0.54961143    -0.22600
C2105       C  0.83723187  0.01258403  0.57396537     0.20400
C2106       C  0.80632056  0.50709807  0.56211994     0.25400
C2107       C  0.79796001  0.51034664  0.52933469    -0.22600
C2108       C  0.81685342  0.52615424  0.00729304     0.20300
F2109       F  0.80885395  0.53083802  0.97558595    -0.12500
F2110       F  0.86377629  0.04899707  0.99618808    -0.14900
F2111       F  0.78760195  0.49284792  0.58475198    -0.14900
F2112       F  0.84692762  0.99992266  0.60349659    -0.12500
loop_ 
_geom_bond_atom_site_label_1 
_geom_bond_atom_site_label_2 
_geom_bond_distance 
_geom_bond_site_symmetry_2 
_ccdc_geom_bond_type 
C1            N2   1.368       .  A
C1            N6   1.366       .  A
C1           C64   1.486       .  S
N2            C3   1.359       .  A
C3            N4   1.356       .  A
C3          C659   1.482       .  S
N4            C5   1.360       .  A
C5            N6   1.367       .  A
C5         C1081   1.474   1_455  S
O7           C23   1.277       .  A
O7          Zn13   2.020       .  S
C8          C639   1.475       .  S
C8           O24   1.277       .  A
C8           O21   1.284   1_556  A
O9           C22   1.276       .  A
O9          Cd16   2.081       .  S
O10          C28   1.287       .  A
O10         Cd19   2.147       .  S
O11          C25   1.277       .  A
O11         Cd15   2.093       .  S
O12          C23   1.274       .  A
O12         Cd15   2.074       .  S
Zn13         O24   2.028   1_554  S
Zn13         O26   2.028       .  S
Zn13         O18   1.932       .  S
O14          C25   1.278   1_455  A
O14         Cd19   2.086   1_455  S
Cd15         O17   2.064       .  S
Cd15         O18   2.007       .  S
Cd16         O20   2.029       .  S
Cd16         O29   2.041       .  S
Cd16         O18   1.967       .  S
O17          C27   1.273       .  A
O18         Cd19   1.982       .  S
Cd19         O21   2.108       .  S
O20          C27   1.271       .  A
C22         C510   1.497       .  S
C22          O26   1.274       .  A
C23         C520   1.477       .  S
C25        C1061   1.473   1_655  S
C27         C500   1.469       .  S
C28          C37   1.481       .  S
C28          O29   1.272       .  A
N30          C34   1.353       .  A
N30         C559   1.354       .  A
N30        C1041   1.438       .  S
C31         N558   1.355       .  A
C31         C480   1.476       .  S
C31         C560   1.385   1_554  A
C32          C33   1.374       .  A
C32         C559   1.385       .  A
C32          H35   1.082       .  S
C33          C34   1.381       .  A
C33          H36   1.079       .  S
C34         C490   1.469       .  S
C37          N38   1.367       .  A
C37          N42   1.364   1_655  A
N38          C39   1.359       .  A
C39          N40   1.356   1_655  A
C39          C95   1.482       .  S
N40          C41   1.360       .  A
C41          N42   1.365       .  A
C41          C61   1.469       .  S
O43          C59   1.276       .  A
O43         Zn49   2.018       .  S
C44          C75   1.482       .  S
C44          O60   1.278       .  A
C44          O57   1.284       .  A
O45          C58   1.275       .  A
O45         Cd52   2.071       .  S
O46          C64   1.288       .  A
O46         Cd55   2.157       .  S
O47          C61   1.277       .  A
O47         Cd51   2.083       .  S
O48          C59   1.275       .  A
O48         Cd51   2.074       .  S
Zn49         O60   2.035       .  S
Zn49         O62   2.029       .  S
Zn49         O54   1.938       .  S
O50          C61   1.279       .  A
O50         Cd55   2.090       .  S
Cd51         O53   2.070       .  S
Cd51         O54   2.004       .  S
Cd52         O56   2.039       .  S
Cd52         O65   2.047       .  S
Cd52         O54   1.971       .  S
O53          C63   1.273       .  A
O54         Cd55   1.989       .  S
Cd55         O57   2.118       .  S
O56          C63   1.272       .  A
C58         C463   1.490       .  S
C58          O62   1.275       .  A
C59         C470   1.477       .  S
C63         C450   1.467       .  S
C64          O65   1.273       .  A
N66          C70   1.353       .  A
N66          C67   1.352       .  A
N66         C460   1.437   1_565  S
C67         C430   1.474       .  S
C67          C68   1.384       .  A
C68          C69   1.375       .  A
C68        H1127   1.085       .  S
C69          C70   1.381       .  A
C69          H72   1.083       .  S
C70         C440   1.469       .  S
H71        C1124   1.087       .  S
C73          N74   1.368       .  A
C73          N78   1.366       .  A
C73         C135   1.486       .  S
N74          C75   1.360       .  A
C75          N76   1.354       .  A
N76          C77   1.360       .  A
C77          N78   1.366       .  A
C77          C97   1.471   1_455  S
O79          C95   1.279       .  A
O79         Zn85   2.046       .  S
C80         C420   1.475       .  S
C80          O96   1.276       .  A
C80          O93   1.274       .  A
O81          C94   1.275       .  A
O81         Cd88   2.074       .  S
O82         C100   1.273       .  A
O82         Cd91   2.074       .  S
O83          C97   1.279   1_455  A
O83         Cd87   2.089   1_455  S
O84          C95   1.283       .  A
O84         Cd87   2.111       .  S
Zn85         O96   2.021       .  S
Zn85         O98   2.036       .  S
Zn85         O90   1.943       .  S
O86          C97   1.276       .  A
O86         Cd91   2.086       .  S
Cd87         O89   2.147       .  S
Cd87         O90   1.996       .  S
Cd88         O92   2.060       .  S
Cd88        O101   2.048       .  S
Cd88         O90   1.978       .  S
O89          C99   1.287       .  A
O90         Cd91   2.009       .  S
Cd91         O93   2.072       .  S
O92          C99   1.275       .  A
C94         C410   1.490       .  S
C94          O98   1.276       .  A
C99         C109   1.486       .  S
C100        C493   1.466       .  S
C100        O101   1.271       .  A
N102        C106   1.353       .  A
N102        C103   1.352       .  A
N102        C413   1.439       .  S
C103        C400   1.473       .  S
C103        C104   1.385       .  A
C104        C105   1.373       .  A
C104        H107   1.079       .  S
C105        C106   1.379       .  A
C105        H108   1.081       .  S
C106        C503   1.463       .  S
C109        N110   1.367       .  A
C109        N114   1.367   1_655  A
N110        C111   1.359       .  A
C111        N112   1.352   1_655  A
C111        C536   1.475       .  S
N112        C113   1.356       .  A
C113        N114   1.367       .  A
C113        C133   1.470       .  S
O115        C131   1.280       .  A
O115       Zn121   2.060       .  S
C116        C390   1.473       .  S
C116        O132   1.276   1_565  A
C116        O129   1.274       .  A
O117        C130   1.276       .  A
O117       Cd124   2.087       .  S
O118        C136   1.272       .  A
O118       Cd127   2.070   1_545  S
O119       C1189   1.279   1_545  A
O119       Cd123   2.090       .  S
O120        C131   1.284       .  A
O120       Cd123   2.120       .  S
Zn121       O132   2.019       .  S
Zn121       O134   2.033       .  S
Zn121       O126   1.937       .  S
O122        C133   1.275       .  A
O122      Cd1183   2.080       .  S
Cd123       O125   2.151       .  S
Cd123       O126   1.990       .  S
Cd124       O128   2.057       .  S
Cd124       O137   2.052       .  S
Cd124       O126   1.983       .  S
O125        C135   1.288       .  A
O126       Cd127   2.006   1_545  S
Cd127       O129   2.075       .  S
Cd127      O1178   2.084       .  S
O128        C135   1.275       .  A
C130        C380   1.483       .  S
C130        O134   1.276       .  A
C131        C531   1.489       .  S
C133       O1175   1.279       .  A
C136        C443   1.470       .  S
C136        O137   1.273       .  A
N138        C142   1.353   1_556  A
N138        C139   1.354       .  A
N138        C911   1.441       .  S
C139        C901   1.475       .  S
C139        C140   1.385   1_556  A
C140        C141   1.372       .  A
C140        H143   1.084       .  S
C141        C142   1.380       .  A
C141        H144   1.084       .  S
C142        C453   1.464       .  S
C145        N146   1.364       .  A
C145        N150   1.368       .  A
C145        C207   1.482       .  S
N146        C147   1.365       .  A
C147        N148   1.357       .  A
C147        C169   1.465       .  S
N148        C149   1.353       .  A
C149        N150   1.360       .  A
C149        C752   1.478       .  S
O151        C167   1.278       .  A
O151       Zn157   2.030   1_556  S
C152        C483   1.479       .  S
C152        O168   1.278       .  A
C152        O165   1.274       .  A
O153        C166   1.275       .  A
O153       Cd160   2.072       .  S
O154        C172   1.270       .  A
O154       Cd163   2.055       .  S
O155        C169   1.279       .  A
O155       Cd159   2.089       .  S
O156        C167   1.285   1_554  A
O156       Cd159   2.112       .  S
Zn157       O168   2.032       .  S
Zn157       O170   2.027       .  S
Zn157       O162   1.931       .  S
O158        C169   1.276       .  A
O158       Cd163   2.071       .  S
Cd159       O161   2.160       .  S
Cd159       O162   1.981       .  S
Cd160       O164   2.046       .  S
Cd160       O173   2.017       .  S
Cd160       O162   1.958       .  S
O161        C171   1.288       .  A
O162       Cd163   1.996       .  S
Cd163       O165   2.071       .  S
O164        C171   1.272       .  A
C166        C360   1.491       .  S
C166        O170   1.275       .  A
C167        C747   1.476       .  S
C171        C181   1.488       .  S
C172        C350   1.465       .  S
C172        O173   1.272       .  A
N174        C178   1.353   1_545  A
N174        C703   1.351   1_545  A
N174        C891   1.437       .  S
C175        N702   1.351   1_565  A
C175        C523   1.472   1_565  S
C175        C704   1.385       .  A
C176        C177   1.375       .  A
C176        C703   1.385       .  A
C176       H1235   1.079       .  S
C177        C178   1.380       .  A
C177        H180   1.077       .  S
C178        C340   1.466       .  S
H179       C1232   1.080       .  S
C181        N182   1.371       .  A
C181        N186   1.365       .  A
N182        C183   1.362       .  A
C183        N184   1.356       .  A
C183        C260   1.488       .  S
N184        C185   1.360       .  A
C185        N186   1.366       .  A
C185       C1261   1.473       .  S
O187        C203   1.276       .  A
O187       Zn193   2.024       .  S
C188        C433   1.479       .  S
C188        O204   1.276       .  A
C188        O201   1.275       .  A
O189        C202   1.275       .  A
O189       Cd196   2.073       .  S
O190        C208   1.273       .  A
O190       Cd199   2.072       .  S
O191        C205   1.279       .  A
O191       Cd195   2.089       .  S
O192        C203   1.284       .  A
O192       Cd195   2.115       .  S
Zn193       O204   2.009       .  S
Zn193       O206   2.022       .  S
Zn193       O198   1.931       .  S
O194        C205   1.278       .  A
O194       Cd199   2.092       .  S
Cd195       O197   2.149       .  S
Cd195       O198   1.986       .  S
Cd196       O200   2.044       .  S
Cd196       O209   2.036       .  S
Cd196       O198   1.969       .  S
O197        C207   1.287       .  A
O198       Cd199   2.008       .  S
Cd199       O201   2.079       .  S
O200        C207   1.273       .  A
C202        C330   1.493       .  S
C202        O206   1.273       .  A
C203        C257   1.477       .  S
C205       C1241   1.472       .  S
C208        C320   1.466       .  S
C208        O209   1.271       .  A
N210        C214   1.354       .  A
N210        C211   1.352       .  A
N210        C333   1.438       .  S
C211        C473   1.474       .  S
C211        C212   1.385       .  A
C212        C213   1.375       .  A
C212        H215   1.080       .  S
C213        C214   1.380       .  A
C213        H216   1.082       .  S
C214        C310   1.469       .  S
C217        N218   1.367       .  A
C217        N222   1.363       .  A
C217        C280   1.479       .  S
N218        C219   1.360       .  A
C219        N220   1.352       .  A
C219        C695   1.475       .  S
N220        C221   1.357       .  A
C221        N222   1.363       .  A
C221        C241   1.462       .  S
O223        C239   1.276       .  A
O223       Zn229   2.021       .  S
C224        C677   1.476       .  S
C224        O240   1.277       .  A
C224        O237   1.282       .  A
O225        C238   1.277       .  A
O225       Cd232   2.081       .  S
O226        C244   1.285       .  A
O226       Cd235   2.136       .  S
O227        C241   1.273       .  A
O227       Cd231   2.064       .  S
O228        C239   1.272       .  A
O228       Cd231   2.058       .  S
Zn229       O240   2.037       .  S
Zn229       O242   2.034       .  S
Zn229       O234   1.938       .  S
O230        C241   1.278       .  A
O230       Cd235   2.083       .  S
Cd231       O233   2.066       .  S
Cd231       O234   2.004       .  S
Cd232       O236   2.061       .  S
Cd232       O245   2.069       .  S
Cd232       O234   1.971       .  S
O233        C243   1.272       .  A
O234       Cd235   1.987       .  S
Cd235       O237   2.103       .  S
O236        C243   1.274       .  A
C238        C303   1.498       .  S
C238        O242   1.276       .  A
C239        C370   1.465       .  S
C243        C313   1.470       .  S
C244        C253   1.485       .  S
C244        O245   1.277       .  A
N246        C250   1.354       .  A
N246        C247   1.354   1_554  A
N246        C828   1.440   1_554  S
C247        C921   1.473       .  S
C247        C248   1.384   1_556  A
C248        C249   1.372       .  A
C248        H251   1.089       .  S
C249        C250   1.379       .  A
C249        H252   1.084       .  S
C250        C323   1.465       .  S
C253        N254   1.367       .  A
C253        N258   1.366       .  A
N254        C255   1.367       .  A
C255        N256   1.358       .  A
C255        C277   1.471       .  S
N256        C257   1.353       .  A
C257        N258   1.359       .  A
O259        C275   1.276   1_545  A
O259       Zn265   2.014       .  S
C260        O276   1.280       .  A
C260        O273   1.283       .  A
O261        C274   1.275       .  A
O261       Cd268   2.080       .  S
O262        C280   1.286       .  A
O262       Cd271   2.140       .  S
O263        C277   1.277       .  A
O263      Cd1323   2.088       .  S
O264        C275   1.273       .  A
O264       Cd267   2.064       .  S
Zn265       O276   2.062       .  S
Zn265       O278   2.048       .  S
Zn265       O270   1.941       .  S
O266       C1333   1.278   1_545  A
O266       Cd271   2.087       .  S
Cd267       O269   2.076       .  S
Cd267      O1319   2.092       .  S
Cd267       O270   2.013   1_565  S
Cd268       O272   2.040       .  S
Cd268       O281   2.047       .  S
Cd268       O270   1.977       .  S
O269        C279   1.274   1_565  A
O270       Cd271   1.988       .  S
Cd271       O273   2.114       .  S
O272        C279   1.271       .  A
C274        C290   1.486       .  S
C274        O278   1.277       .  A
C275       C1459   1.469       .  S
C277       O1322   1.279       .  A
C279        C343   1.472       .  S
C280        O281   1.273       .  A
N282        C286   1.362       .  A
N282        C283   1.362       .  A
N282        C293   1.449       .  S
C283        C423   1.481       .  S
C283        C284   1.387       .  A
C284        C285   1.366       .  A
C284        H287   1.081       .  S
C285        C286   1.377       .  A
C285        H288   1.083       .  S
C286        C353   1.476       .  S
C289        C290   1.403       .  A
C289        C294   1.401       .  A
C289        F296   1.358       .  S
C290        C291   1.412       .  A
C291        C292   1.408       .  A
C291        F298   1.358       .  S
C292        C293   1.407       .  A
C292        F297   1.357       .  S
C293        C294   1.410       .  A
C294        F295   1.357       .  S
C299        C300   1.404       .  A
C299        C304   1.405       .  A
C299        F306   1.356       .  S
C300        N774   1.442       .  S
C300        C301   1.401       .  A
C301        C302   1.399       .  A
C301        F308   1.357       .  S
C302        C303   1.412       .  A
C302        F307   1.357       .  S
C303        C304   1.416       .  A
C304        F305   1.358       .  S
C309        C310   1.403       .  A
C309        C314   1.406       .  A
C309        F316   1.357       .  S
C310        C311   1.401       .  A
C311        C312   1.387       .  A
C311        F318   1.359       .  S
C312        C313   1.403       .  A
C312        F317   1.357       .  S
C313        C314   1.409       .  A
C314        F315   1.357       .  S
C319        C320   1.408       .  A
C319        C324   1.405       .  A
C319        F326   1.357       .  S
C320        C321   1.405       .  A
C321        C322   1.384       .  A
C321        F328   1.359       .  S
C322        C323   1.399       .  A
C322        F327   1.359       .  S
C323        C324   1.403       .  A
C324        F325   1.357       .  S
C329        C330   1.411       .  A
C329        C334   1.398       .  A
C329        F336   1.358       .  S
C330        C331   1.416       .  A
C331        C332   1.402       .  A
C331        F338   1.358       .  S
C332        C333   1.402       .  A
C332        F337   1.356       .  S
C333        C334   1.401       .  A
C334        F335   1.357       .  S
C339        C340   1.399   1_545  A
C339        C344   1.385       .  A
C339        F346   1.359       .  S
C340        C341   1.403       .  A
C341        C342   1.406       .  A
C341       F1404   1.357       .  S
C342        C343   1.409   1_565  A
C342        F347   1.357       .  S
C343        C344   1.407       .  A
C344        F345   1.359       .  S
F348       C1397   1.357       .  S
C349        C350   1.406       .  A
C349        C354   1.400       .  A
C349        F356   1.358       .  S
C350        C351   1.401       .  A
C351        C352   1.381       .  A
C351        F358   1.360       .  S
C352        C353   1.404       .  A
C352        F357   1.352       .  S
C353        C354   1.408       .  A
C354        F355   1.358       .  S
C359        C360   1.414       .  A
C359        C364   1.402       .  A
C359        F366   1.358   1_554  S
C360        C361   1.410       .  A
C361        C362   1.399       .  A
C361        F368   1.358       .  S
C362        C363   1.401       .  A
C362        F367   1.357   1_545  S
C363        N702   1.437       .  S
C363        C364   1.402       .  A
C364        F893   1.356   1_554  S
F365        C892   1.356       .  S
C369        C370   1.406       .  A
C369        C374   1.397       .  A
C369        F376   1.355       .  S
C370        C899   1.399       .  A
C371        C372   1.397   1_556  A
C371        C898   1.403       .  A
C371        F378   1.358   1_556  S
C372        C901   1.409   1_554  A
C372        F377   1.359       .  S
C373        C667   1.473       .  S
C373        C374   1.401       .  A
C373        C900   1.410       .  A
C374        F375   1.357       .  S
C379        C380   1.404       .  A
C379        C384   1.402       .  A
C379        F386   1.357       .  S
C380        C381   1.411       .  A
C381        C910   1.404       .  A
C381        F916   1.358       .  S
C382        C909   1.407       .  A
C382        C911   1.402       .  A
C382        F387   1.356   1_556  S
C383        N666   1.445       .  S
C383        C384   1.409       .  A
C383        C910   1.404       .  A
C384        F385   1.357       .  S
F388        C909   1.357       .  S
C389        C394   1.400       .  A
C389       C1446   1.402       .  A
C389        F396   1.358       .  S
C390       C1445   1.400       .  A
C390        C919   1.409       .  A
C391        C918   1.408       .  A
C391       C1448   1.401       .  A
C391        F398   1.356       .  S
C392       C1447   1.401       .  A
C392        C921   1.400       .  A
C392       F1453   1.357       .  S
C393        C775   1.474       .  S
C393        C394   1.408       .  A
C393        C920   1.401       .  A
C394        F395   1.358       .  S
F397       C1448   1.358       .  S
C399        C400   1.408       .  A
C399        C404   1.396       .  A
C399        F406   1.359       .  S
C400        C401   1.399       .  A
C401       C1458   1.402       .  A
C401       F1464   1.357       .  S
C402       C1457   1.401       .  A
C402       C1459   1.411       .  A
C402        F407   1.357       .  S
C403       C1331   1.477       .  S
C403        C404   1.402       .  A
C403       C1458   1.412       .  A
C404        F405   1.358       .  S
F408       C1457   1.358       .  S
C409        C410   1.408       .  A
C409        C414   1.398       .  A
C409        F416   1.358       .  S
C410        C411   1.414       .  A
C411        C412   1.405       .  A
C411        F418   1.358       .  S
C412        C413   1.403       .  A
C412        F417   1.356       .  S
C413        C414   1.403       .  A
C414        F415   1.357       .  S
C419        C420   1.410       .  A
C419        C424   1.403       .  A
C419        F426   1.356       .  S
C420        C421   1.400       .  A
C421        C422   1.396       .  A
C421        F428   1.358       .  S
C422        C423   1.412       .  A
C422        F427   1.359       .  S
C423        C424   1.402       .  A
C424        F425   1.357       .  S
C429        C430   1.400       .  A
C429       C1490   1.403       .  A
C429        F436   1.358       .  S
C430        C431   1.408   1_565  A
C431       C1488   1.399       .  A
C431        F438   1.358       .  S
C432        C433   1.402       .  A
C432       C1487   1.395       .  A
C432        F437   1.358       .  S
C433        C434   1.413       .  A
C434       C1485   1.406       .  A
C434        F435   1.356       .  S
C439        C440   1.404       .  A
C439        C444   1.407       .  A
C439       F1502   1.357       .  S
C440        C441   1.400       .  A
C441        C442   1.385   1_565  A
C441        F448   1.359       .  S
C442        C443   1.403       .  A
C442        F447   1.358       .  S
C443        C444   1.409   1_545  A
C444        F445   1.357       .  S
F446       C1495   1.357       .  S
C449        C450   1.409       .  A
C449        C454   1.406       .  A
C449        F456   1.357       .  S
C450        C451   1.404       .  A
C451        C452   1.382       .  A
C451        F458   1.359       .  S
C452        C453   1.400       .  A
C452        F457   1.360       .  S
C453        C454   1.402       .  A
C454        F455   1.357       .  S
C459        C460   1.401       .  A
C459        C464   1.403       .  A
C459        F466   1.356       .  S
C460        C461   1.402       .  A
C461        C462   1.398       .  A
C461        F468   1.357   1_545  S
C462        C463   1.410       .  A
C462        F467   1.358       .  S
C463        C464   1.414       .  A
C464        F465   1.358       .  S
C469        C470   1.411       .  A
C469        C474   1.403       .  A
C469        F476   1.356       .  S
C470        C471   1.402       .  A
C471        C472   1.397       .  A
C471        F478   1.358       .  S
C472        C473   1.407       .  A
C472        F477   1.359       .  S
C473        C474   1.400       .  A
C474        F475   1.357       .  S
C479        C480   1.401       .  A
C479        C484   1.404       .  A
C479       F1014   1.357       .  S
C480        C481   1.408       .  A
C481        C482   1.399       .  A
C481        F488   1.358   1_554  S
C482        C483   1.402       .  A
C482        F487   1.358   1_554  S
C483        C484   1.412       .  A
C484        F485   1.358       .  S
F486       C1007   1.357       .  S
C489        C490   1.405       .  A
C489        C494   1.405       .  A
C489        F496   1.357       .  S
C490        C491   1.401       .  A
C491        C492   1.387       .  A
C491        F498   1.359       .  S
C492        C493   1.403       .  A
C492        F497   1.358       .  S
C493        C494   1.406       .  A
C494        F495   1.357       .  S
C499        C500   1.406       .  A
C499        C504   1.380       .  A
C499        F506   1.359       .  S
C500        C501   1.410       .  A
C501        C502   1.405       .  A
C501        F508   1.357       .  S
C502        C503   1.401       .  A
C502        F507   1.357       .  S
C503        C504   1.398       .  A
C504        F505   1.359       .  S
C509        C510   1.411       .  A
C509        C514   1.400       .  A
C509        F516   1.358       .  S
C510        C511   1.416       .  A
C511        C512   1.404       .  A
C511        F518   1.358   1_554  S
C512        C513   1.402       .  A
C512       F1045   1.357   1_554  S
C513        N558   1.439       .  S
C513        C514   1.402       .  A
C514        F515   1.357       .  S
F517       C1040   1.357       .  S
C519        C520   1.402       .  A
C519       C2108   1.397       .  A
C519       F1054   1.358   1_554  S
C520        C521   1.412       .  A
C521       C1578   1.404       .  A
C521        F528   1.358       .  S
C522        C523   1.400       .  A
C522       C1577   1.402       .  A
C522        F527   1.358   1_545  S
C523       C1052   1.407       .  A
C524       C2103   1.398       .  A
C524       C1051   1.407       .  A
C524        F525   1.358       .  S
F526       C1047   1.358       .  S
C529        N530   1.372       .  A
C529        N534   1.363       .  A
C529        C592   1.486       .  S
N530        C531   1.363       .  A
C531        N532   1.356       .  A
N532        C533   1.360       .  A
C533        N534   1.364       .  A
C533       C1609   1.471       .  S
O535        C551   1.277       .  A
O535       Zn541   2.018       .  S
C536        O552   1.278       .  A
C536        O549   1.284       .  A
O537        C550   1.275       .  A
O537       Cd544   2.078       .  S
O538        C556   1.286       .  A
O538       Cd547   2.144       .  S
O539        C553   1.277       .  A
O539       Cd543   2.093       .  S
O540        C551   1.274       .  A
O540       Cd543   2.073       .  S
Zn541       O552   2.029       .  S
Zn541       O554   2.028       .  S
Zn541       O546   1.930       .  S
O542        C553   1.278   1_455  A
O542       Cd547   2.085   1_455  S
Cd543       O545   2.065       .  S
Cd543       O546   2.007       .  S
Cd544       O548   2.030       .  S
Cd544       O557   2.040       .  S
Cd544       O546   1.967       .  S
O545        C555   1.273       .  A
O546       Cd547   1.980       .  S
Cd547       O549   2.108       .  S
O548        C555   1.271       .  A
C550       C1038   1.496       .  S
C550        O554   1.274       .  A
C551       C1048   1.476       .  S
C553       C1589   1.473   1_655  S
C555       C1028   1.469       .  S
C556        C565   1.480       .  S
C556        O557   1.272       .  A
N558        C562   1.353   1_554  A
C559       C1008   1.475       .  S
C560        C561   1.373       .  A
C560        H563   1.082       .  S
C561        C562   1.380       .  A
C561        H564   1.079       .  S
C562       C1018   1.469       .  S
C565        N566   1.367       .  A
C565        N570   1.363   1_655  A
N566        C567   1.358       .  A
C567        N568   1.356   1_655  A
C567        C623   1.482       .  S
N568        C569   1.360       .  A
C569        N570   1.365       .  A
C569        C589   1.469       .  S
O571        C587   1.277       .  A
O571       Zn577   2.026       .  S
C572        C603   1.475       .  S
C572        O588   1.278       .  A
C572        O585   1.284       .  A
O573        C586   1.272       .  A
O573       Cd580   2.060       .  S
O574        C592   1.288       .  A
O574       Cd583   2.161       .  S
O575        C589   1.277       .  A
O575       Cd579   2.085       .  S
O576        C587   1.274       .  A
O576       Cd579   2.066       .  S
Zn577       O588   2.027       .  S
Zn577       O590   2.038       .  S
Zn577       O582   1.936       .  S
O578        C589   1.279       .  A
O578       Cd583   2.087       .  S
Cd579       O581   2.073       .  S
Cd579       O582   2.003       .  S
Cd580       O584   2.003       .  S
Cd580       O593   2.037       .  S
Cd580       O582   1.955       .  S
O581        C591   1.273       .  A
O582       Cd583   1.981       .  S
Cd583       O585   2.111       .  S
O584        C591   1.270       .  A
C586        C991   1.491       .  S
C586        O590   1.275       .  A
C587        C998   1.477       .  S
C591        C978   1.466       .  S
C592        O593   1.270       .  A
N594        C598   1.353       .  A
N594        C595   1.352       .  A
N594        C988   1.437   1_565  S
C595        C958   1.474   1_565  S
C595        C596   1.384       .  A
C596        C597   1.375       .  A
C596       H1655   1.086       .  S
C597        C598   1.380       .  A
C597        H600   1.083       .  S
C598        C968   1.468       .  S
H599       C1652   1.087       .  S
C601        N602   1.365       .  A
C601        N606   1.365       .  A
C601        C663   1.481       .  S
N602        C603   1.358       .  A
C603        N604   1.353       .  A
N604        C605   1.359       .  A
C605        N606   1.366       .  A
C605        C625   1.467   1_455  S
O607        C623   1.279       .  A
O607       Zn613   2.047       .  S
C608        C948   1.474       .  S
C608        O624   1.277       .  A
C608        O621   1.273       .  A
O609        C622   1.275       .  A
O609       Cd616   2.071       .  S
O610        C628   1.272       .  A
O610       Cd619   2.069       .  S
O611        C625   1.279   1_455  A
O611       Cd615   2.087   1_455  S
O612        C623   1.282       .  A
O612       Cd615   2.109       .  S
Zn613       O624   2.027       .  S
Zn613       O626   2.034       .  S
Zn613       O618   1.941       .  S
O614        C625   1.275       .  A
O614       Cd619   2.075       .  S
Cd615       O617   2.145       .  S
Cd615       O618   1.992       .  S
Cd616       O620   2.062       .  S
Cd616       O629   2.049       .  S
Cd616       O618   1.976       .  S
O617        C627   1.286       .  A
O618       Cd619   2.004       .  S
Cd619       O621   2.065       .  S
O620        C627   1.276       .  A
C622        C938   1.490       .  S
C622        O626   1.276       .  A
C627        C637   1.485       .  S
C628       C1021   1.466       .  S
C628        O629   1.272       .  A
N630        C634   1.352       .  A
N630        C631   1.352       .  A
N630        C941   1.438       .  S
C631        C928   1.473       .  S
C631        C632   1.386       .  A
C632        C633   1.373       .  A
C632        H635   1.079       .  S
C633        C634   1.379       .  A
C633        H636   1.081       .  S
C634       C1031   1.463       .  S
C637        N638   1.367       .  A
C637        N642   1.367   1_655  A
N638        C639   1.359       .  A
C639        N640   1.352   1_655  A
N640        C641   1.356       .  A
C641        N642   1.367       .  A
C641        C661   1.470       .  S
O643        C659   1.279       .  A
O643       Zn649   2.045   1_554  S
C644        C918   1.469       .  S
C644        O660   1.276   1_565  A
C644        O657   1.274       .  A
O645        C658   1.277       .  A
O645       Cd652   2.087       .  S
O646        C664   1.273       .  A
O646       Cd655   2.072   1_545  S
O647       C1717   1.278   1_545  A
O647       Cd651   2.086       .  S
O648        C659   1.283   1_556  A
O648       Cd651   2.112       .  S
Zn649       O660   2.015       .  S
Zn649       O662   2.040       .  S
Zn649       O654   1.936       .  S
O650        C661   1.276       .  A
O650      Cd1711   2.081       .  S
Cd651       O653   2.144       .  S
Cd651       O654   1.992       .  S
Cd652       O656   2.051       .  S
Cd652       O665   2.053       .  S
Cd652       O654   1.975       .  S
O653        C663   1.287       .  A
O654       Cd655   2.013   1_545  S
Cd655      O1706   2.087       .  S
Cd655       O657   2.073       .  S
O656        C663   1.274       .  A
C658        C908   1.495       .  S
C658        O662   1.276       .  A
C661       O1703   1.279       .  A
C664        C971   1.470       .  S
C664        O665   1.274       .  A
N666        C670   1.357       .  A
N666        C667   1.357       .  A
C667        C668   1.386       .  A
C668        C669   1.369       .  A
C668        H671   1.083       .  S
C669        C670   1.378       .  A
C669        H672   1.083       .  S
C670        C981   1.470       .  S
C673        N674   1.364       .  A
C673        N678   1.367       .  A
C673        C735   1.482       .  S
N674        C675   1.365       .  A
C675        N676   1.357       .  A
C675        C697   1.465       .  S
N676        C677   1.353       .  A
C677        N678   1.359       .  A
O679        C695   1.277       .  A
O679       Zn685   2.022       .  S
C680       C1011   1.477       .  S
C680        O696   1.277       .  A
C680        O693   1.274       .  A
O681        C694   1.275       .  A
O681       Cd688   2.073       .  S
O682        C700   1.270       .  A
O682       Cd691   2.053       .  S
O683        C697   1.280       .  A
O683       Cd687   2.091       .  S
O684        C695   1.285       .  A
O684       Cd687   2.116       .  S
Zn685       O696   2.026       .  S
Zn685       O698   2.021       .  S
Zn685       O690   1.930       .  S
O686        C697   1.276       .  A
O686       Cd691   2.071       .  S
Cd687       O689   2.161       .  S
Cd687       O690   1.980       .  S
Cd688       O692   2.046       .  S
Cd688       O701   2.019       .  S
Cd688       O690   1.959       .  S
O689        C699   1.288       .  A
O690       Cd691   1.995       .  S
Cd691       O693   2.072       .  S
O692        C699   1.272       .  A
C694        C888   1.490       .  S
C694        O698   1.274       .  A
C699        C709   1.488       .  S
C700        C878   1.463       .  S
C700        O701   1.272       .  A
N702        C706   1.353   1_544  A
C703       C1051   1.471   1_565  S
C704        C705   1.375   1_554  A
C704       H1763   1.079       .  S
C705        C706   1.380       .  A
C705        H708   1.077       .  S
C706        C868   1.467       .  S
H707       C1760   1.079       .  S
C709        N710   1.371       .  A
C709        N714   1.365       .  A
N710        C711   1.362       .  A
C711        N712   1.356       .  A
C711        C788   1.489       .  S
N712        C713   1.360       .  A
C713        N714   1.366       .  A
C713       C1789   1.474       .  S
O715        C731   1.277       .  A
O715       Zn721   2.027       .  S
C716        C961   1.480       .  S
C716        O732   1.276       .  A
C716        O729   1.275       .  A
O717        C730   1.275       .  A
O717       Cd724   2.074       .  S
O718        C736   1.273       .  A
O718       Cd727   2.072       .  S
O719        C733   1.279       .  A
O719       Cd723   2.089       .  S
O720        C731   1.284       .  A
O720       Cd723   2.117       .  S
Zn721       O732   2.007       .  S
Zn721       O734   2.023       .  S
Zn721       O726   1.932       .  S
O722        C733   1.278       .  A
O722       Cd727   2.090       .  S
Cd723       O725   2.149       .  S
Cd723       O726   1.988       .  S
Cd724       O728   2.044       .  S
Cd724       O737   2.037       .  S
Cd724       O726   1.970       .  S
O725        C735   1.287       .  A
O726       Cd727   2.009       .  S
Cd727       O729   2.081       .  S
O728        C735   1.273       .  A
C730        C858   1.493       .  S
C730        O734   1.274       .  A
C731        C785   1.479       .  S
C733       C1769   1.472       .  S
C736        C848   1.466       .  S
C736        O737   1.271       .  A
N738        C742   1.354       .  A
N738        C739   1.351       .  A
N738        C861   1.439       .  S
C739       C1001   1.473       .  S
C739        C740   1.385       .  A
C740        C741   1.375       .  A
C740        H743   1.081       .  S
C741        C742   1.380       .  A
C741        H744   1.082       .  S
C742        C838   1.468       .  S
C745        N746   1.366       .  A
C745        N750   1.364       .  A
C745        C808   1.481       .  S
N746        C747   1.358       .  A
C747        N748   1.353       .  A
N748        C749   1.358       .  A
C749        N750   1.365       .  A
C749        C769   1.466       .  S
O751        C767   1.277       .  A
O751       Zn757   2.024       .  S
C752        O768   1.278       .  A
C752        O765   1.283   1_554  A
O753        C766   1.277       .  A
O753       Cd760   2.085       .  S
O754        C772   1.286       .  A
O754       Cd763   2.142       .  S
O755        C769   1.276       .  A
O755       Cd759   2.076       .  S
O756        C767   1.274       .  A
O756       Cd759   2.067       .  S
Zn757       O768   2.036   1_556  S
Zn757       O770   2.022       .  S
Zn757       O762   1.938       .  S
O758        C769   1.279       .  A
O758       Cd763   2.087       .  S
Cd759       O761   2.066       .  S
Cd759       O762   2.000       .  S
Cd760       O764   2.059       .  S
Cd760       O773   2.071       .  S
Cd760       O762   1.974       .  S
O761        C771   1.273       .  A
O762       Cd763   1.986       .  S
Cd763       O765   2.108       .  S
O764        C771   1.274       .  A
C766        C831   1.495       .  S
C766        O770   1.274       .  A
C767        C898   1.480       .  S
C771        C841   1.472       .  S
C772        C781   1.488       .  S
C772        O773   1.277       .  A
N774        C778   1.355       .  A
N774        C775   1.355       .  A
C775        C776   1.383       .  A
C776        C777   1.371       .  A
C776        H779   1.089       .  S
C777        C778   1.379       .  A
C777        H780   1.084       .  S
C778        C851   1.464       .  S
C781        N782   1.368       .  A
C781        N786   1.367       .  A
N782        C783   1.368       .  A
C783        N784   1.358       .  A
C783        C805   1.473       .  S
N784        C785   1.353       .  A
C785        N786   1.360       .  A
O787        C803   1.275   1_545  A
O787       Zn793   2.011       .  S
C788        O804   1.280       .  A
C788        O801   1.284       .  A
O789        C802   1.275       .  A
O789       Cd796   2.082       .  S
O790        C808   1.287       .  A
O790       Cd799   2.143       .  S
O791        C805   1.277       .  A
O791      Cd1851   2.091       .  S
O792        C803   1.273       .  A
O792       Cd795   2.070       .  S
Zn793       O804   2.060       .  S
Zn793       O806   2.041       .  S
Zn793       O798   1.940       .  S
O794       C1861   1.278   1_545  A
O794       Cd799   2.086       .  S
Cd795      O1847   2.092       .  S
Cd795       O797   2.074       .  S
Cd795       O798   2.013   1_565  S
Cd796       O800   2.044       .  S
Cd796       O809   2.051       .  S
Cd796       O798   1.979       .  S
O797        C807   1.273   1_565  A
O798       Cd799   1.990       .  S
Cd799       O801   2.117       .  S
O800        C807   1.272       .  A
C802        C818   1.485       .  S
C802        O806   1.276       .  A
C803       C1987   1.470       .  S
C805       O1850   1.279       .  A
C807        C871   1.471       .  S
C808        O809   1.274       .  A
N810        C814   1.361       .  A
N810        C811   1.361       .  A
N810        C821   1.448       .  S
C811        C951   1.480       .  S
C811        C812   1.387       .  A
C812        C813   1.365       .  A
C812        H815   1.081       .  S
C813        C814   1.378       .  A
C813        H816   1.083       .  S
C814        C881   1.476       .  S
C817        C818   1.403       .  A
C817        C822   1.401       .  A
C817        F824   1.358       .  S
C818        C819   1.412       .  A
C819        C820   1.407       .  A
C819        F826   1.358       .  S
C820        C821   1.406       .  A
C820        F825   1.357       .  S
C821        C822   1.411       .  A
C822        F823   1.357       .  S
C827        C828   1.403   1_554  A
C827        C832   1.403   1_554  A
C827        F834   1.356       .  S
C828        C829   1.402       .  A
C829        C830   1.400       .  A
C829        F836   1.357       .  S
C830        C831   1.410       .  A
C830        F835   1.357       .  S
C831        C832   1.416       .  A
C832        F833   1.358   1_556  S
C837        C838   1.402       .  A
C837        C842   1.406       .  A
C837        F844   1.357       .  S
C838        C839   1.400       .  A
C839        C840   1.386       .  A
C839        F846   1.359       .  S
C840        C841   1.405       .  A
C840        F845   1.358       .  S
C841        C842   1.410       .  A
C842        F843   1.357       .  S
C847        C848   1.408       .  A
C847        C852   1.406       .  A
C847        F854   1.357       .  S
C848        C849   1.404       .  A
C849        C850   1.383       .  A
C849        F856   1.359       .  S
C850        C851   1.399       .  A
C850        F855   1.359       .  S
C851        C852   1.403       .  A
C852        F853   1.357       .  S
C857        C858   1.410       .  A
C857        C862   1.399       .  A
C857        F864   1.358       .  S
C858        C859   1.415       .  A
C859        C860   1.403       .  A
C859        F866   1.358       .  S
C860        C861   1.402       .  A
C860        F865   1.355       .  S
C861        C862   1.401       .  A
C862        F863   1.357       .  S
C867        C868   1.399   1_545  A
C867        C872   1.385       .  A
C867        F874   1.359       .  S
C868        C869   1.403       .  A
C869        C870   1.406       .  A
C869       F1932   1.357   1_556  S
C870        C871   1.409   1_565  A
C870        F875   1.357       .  S
C871        C872   1.406       .  A
C872        F873   1.359       .  S
F876       C1925   1.357   1_554  S
C877        C878   1.405       .  A
C877        C882   1.399       .  A
C877        F884   1.358       .  S
C878        C879   1.400       .  A
C879        C880   1.381       .  A
C879        F886   1.360       .  S
C880        C881   1.405       .  A
C880        F885   1.352       .  S
C881        C882   1.408       .  A
C882        F883   1.358       .  S
C887        C888   1.415       .  A
C887        C892   1.401       .  A
C887        F894   1.358       .  S
C888        C889   1.410       .  A
C889        C890   1.399       .  A
C889        F896   1.358       .  S
C890        C891   1.401       .  A
C890        F895   1.357   1_545  S
C891        C892   1.401       .  A
C897        C898   1.412       .  A
C897        C902   1.403       .  A
C897        F904   1.355       .  S
C899        C900   1.397       .  A
C899        F906   1.358       .  S
C900        F905   1.358       .  S
C901        C902   1.398       .  A
C902        F903   1.357       .  S
C907        C908   1.409       .  A
C907        C912   1.400       .  A
C907        F914   1.358       .  S
C908        C909   1.416       .  A
C910        F915   1.357       .  S
C911        C912   1.404       .  A
C912        F913   1.358       .  S
C917       C1974   1.402       .  A
C917        C922   1.399   1_556  A
C917        F924   1.358   1_556  S
C918       C1973   1.399       .  A
C919       C1976   1.402       .  A
C919        F926   1.356       .  S
C920       C1975   1.402       .  A
C920       F1981   1.357       .  S
C921        C922   1.408   1_556  A
C922        F923   1.358       .  S
F925       C1976   1.358       .  S
C927        C928   1.407       .  A
C927        C932   1.396       .  A
C927        F934   1.359       .  S
C928        C929   1.399       .  A
C929       C1986   1.403       .  A
C929       F1992   1.357       .  S
C930       C1985   1.402       .  A
C930       C1987   1.410       .  A
C930        F935   1.357       .  S
C931       C1859   1.476       .  S
C931       C1986   1.412       .  A
C931        C932   1.402       .  A
C932        F933   1.358       .  S
F936       C1985   1.358       .  S
C937        C938   1.408       .  A
C937        C942   1.398       .  A
C937        F944   1.358       .  S
C938        C939   1.414       .  A
C939        C940   1.404       .  A
C939        F946   1.358       .  S
C940        C941   1.403       .  A
C940        F945   1.356       .  S
C941        C942   1.402       .  A
C942        F943   1.357       .  S
C947        C948   1.410       .  A
C947        C952   1.402       .  A
C947        F954   1.355       .  S
C948        C949   1.400       .  A
C949        C950   1.396       .  A
C949        F956   1.358       .  S
C950        C951   1.412       .  A
C950        F955   1.359       .  S
C951        C952   1.402       .  A
C952        F953   1.357       .  S
C957        C958   1.400   1_565  A
C957       C2018   1.403   1_565  A
C957        F964   1.358       .  S
C958        C959   1.408       .  A
C959       C2016   1.398       .  A
C959        F966   1.358       .  S
C960       C2015   1.395       .  A
C960        C961   1.402       .  A
C960        F965   1.358       .  S
C961        C962   1.413       .  A
C962       C2013   1.407       .  A
C962        F963   1.356       .  S
C967        C968   1.404       .  A
C967        C972   1.407       .  A
C967       F2030   1.357       .  S
C968        C969   1.400       .  A
C969        C970   1.385   1_565  A
C969        F976   1.359   1_565  S
C970        C971   1.404       .  A
C970        F975   1.358       .  S
C971        C972   1.409   1_545  A
C972        F973   1.357       .  S
F974       C2023   1.357       .  S
C977        C978   1.405       .  A
C977        C982   1.399       .  A
C977        F984   1.357       .  S
C978        C979   1.405       .  A
C979        C980   1.383       .  A
C979        F986   1.360       .  S
C980        C981   1.402       .  A
C980        F985   1.354       .  S
C981        C982   1.406       .  A
C982        F983   1.358       .  S
C987        C988   1.402       .  A
C987        C992   1.404       .  A
C987        F994   1.356       .  S
C988        C989   1.401       .  A
C989        C990   1.397       .  A
C989        F996   1.358   1_545  S
C990        C991   1.410       .  A
C990        F995   1.358       .  S
C991        C992   1.414       .  A
C992        F993   1.357       .  S
C997        C998   1.413       .  A
C997       C1002   1.402       .  A
C997       F1004   1.358       .  S
C998        C999   1.403       .  A
C999       C1000   1.398       .  A
C999       F1006   1.358       .  S
C1000      C1001   1.407       .  A
C1000      F1005   1.359       .  S
C1001      C1002   1.399       .  A
C1002      F1003   1.357       .  S
C1007      C1008   1.401       .  A
C1007      C1012   1.403       .  A
C1008      C1009   1.408       .  A
C1009      C1010   1.399       .  A
C1009      F1016   1.358       .  S
C1010      C1011   1.402       .  A
C1010      F1015   1.358       .  S
C1011      C1012   1.412       .  A
C1012      F1013   1.358       .  S
C1017      C1018   1.404       .  A
C1017      C1022   1.405       .  A
C1017      F1024   1.357   1_556  S
C1018      C1019   1.401       .  A
C1019      C1020   1.386       .  A
C1019      F1026   1.359       .  S
C1020      C1021   1.403       .  A
C1020      F1025   1.358       .  S
C1021      C1022   1.406       .  A
C1022      F1023   1.357       .  S
C1027      C1028   1.406       .  A
C1027      C1032   1.381       .  A
C1027      F1034   1.359       .  S
C1028      C1029   1.410       .  A
C1029      C1030   1.405       .  A
C1029      F1036   1.357       .  S
C1030      C1031   1.402       .  A
C1030      F1035   1.357       .  S
C1031      C1032   1.398       .  A
C1032      F1033   1.359       .  S
C1037      C1038   1.411       .  A
C1037      C1042   1.400       .  A
C1037      F1044   1.358       .  S
C1038      C1039   1.416       .  A
C1039      C1040   1.403       .  A
C1039      F1046   1.358       .  S
C1040      C1041   1.402       .  A
C1041      C1042   1.402       .  A
C1042      F1043   1.357       .  S
C1047      C1048   1.402       .  A
C1047      C1580   1.396       .  A
C1048      C1049   1.412       .  A
C1049      C2106   1.404       .  A
C1049      F1056   1.357       .  S
C1050      C2105   1.401       .  A
C1050      C1051   1.400       .  A
C1050      F1055   1.358   1_545  S
C1052      C1575   1.398       .  A
C1052      F1053   1.358   1_554  S
C1057      N1058   1.368       .  A
C1057      N1062   1.367       .  A
C1057      C1120   1.486       .  S
N1058      C1059   1.359       .  A
C1059      N1060   1.354       .  A
C1059      C1715   1.481       .  S
N1060      C1061   1.359       .  A
C1061      N1062   1.368       .  A
O1063      C1079   1.278   1_565  A
O1063     Zn1069   2.027       .  S
C1064      C1695   1.478       .  S
C1064      O1080   1.280       .  A
C1064      O1077   1.285   1_556  A
O1065      C1078   1.274       .  A
O1065     Cd1072   2.071       .  S
O1066      C1084   1.289       .  A
O1066     Cd1075   2.163       .  S
O1067      C1081   1.277       .  A
O1067     Cd1071   2.089   1_545  S
O1068      C1079   1.273       .  A
O1068     Cd1071   2.065   1_545  S
Zn1069     O1080   2.037   1_554  S
Zn1069     O1082   2.048       .  S
Zn1069     O1074   1.933       .  S
O1070      C1081   1.279   1_465  A
O1070     Cd1075   2.093   1_455  S
Cd1071     O1073   2.066       .  S
Cd1071     O1074   2.006       .  S
Cd1072     O1076   2.019       .  S
Cd1072     O1085   2.038       .  S
Cd1072     O1074   1.957       .  S
O1073      C1083   1.273       .  A
O1074     Cd1075   1.982       .  S
Cd1075     O1077   2.113       .  S
O1076      C1083   1.271       .  A
C1078      C1566   1.497       .  S
C1078      O1082   1.276       .  A
C1079      C1576   1.474       .  S
C1083      C1556   1.471       .  S
C1084      C1093   1.486       .  S
C1084      O1085   1.271       .  A
N1086      C1090   1.353       .  A
N1086      C1615   1.354       .  A
N1086      C2097   1.440       .  S
C1087      N1614   1.354       .  A
C1087      C1536   1.473       .  S
C1087      C1616   1.385       .  A
C1088      C1615   1.385       .  A
C1088      C1089   1.373       .  A
C1088      H1091   1.085       .  S
C1089      C1090   1.380       .  A
C1089      H1092   1.081       .  S
C1090      C1546   1.467       .  S
C1093      N1094   1.370       .  A
C1093      N1098   1.365   1_655  A
N1094      C1095   1.360       .  A
C1095      N1096   1.354   1_655  A
C1095      C1151   1.484       .  S
N1096      C1097   1.358       .  A
C1097      N1098   1.366       .  A
C1097      C1117   1.470       .  S
O1099      C1115   1.276       .  A
O1099     Zn1105   2.020       .  S
C1100      C1131   1.480       .  S
C1100      O1116   1.279       .  A
C1100      O1113   1.284       .  A
O1101      C1114   1.275       .  A
O1101     Cd1108   2.071       .  S
O1102      C1120   1.287       .  A
O1102     Cd1111   2.153       .  S
O1103      C1117   1.277       .  A
O1103     Cd1107   2.084       .  S
O1104      C1115   1.274       .  A
O1104     Cd1107   2.068       .  S
Zn1105     O1116   2.041       .  S
Zn1105     O1118   2.035       .  S
Zn1105     O1110   1.944       .  S
O1106      C1117   1.279       .  A
O1106     Cd1111   2.089       .  S
Cd1107     O1109   2.064       .  S
Cd1107     O1110   2.009       .  S
Cd1108     O1112   2.033       .  S
Cd1108     O1121   2.050       .  S
Cd1108     O1110   1.968       .  S
O1109      C1119   1.272       .  A
O1110     Cd1111   1.989       .  S
Cd1111     O1113   2.112       .  S
O1112      C1119   1.271       .  A
C1114      C1519   1.489       .  S
C1114      O1118   1.275       .  A
C1115      C1526   1.478       .  S
C1119      C1506   1.474       .  S
C1120      O1121   1.273       .  A
N1122      C1126   1.355       .  A
N1122      C1123   1.354       .  A
N1122      C1516   1.441       .  S
C1123      C1486   1.477       .  S
C1123      C1124   1.386       .  A
C1124      C1125   1.373       .  A
C1125      C1126   1.378       .  A
C1125      H1128   1.084       .  S
C1126      C1496   1.467       .  S
C1129      N1130   1.368       .  A
C1129      N1134   1.365       .  A
C1129      C1191   1.484       .  S
N1130      C1131   1.359       .  A
C1131      N1132   1.353       .  A
N1132      C1133   1.358       .  A
C1133      N1134   1.366       .  A
C1133      C1153   1.467   1_455  S
O1135      C1151   1.280       .  A
O1135     Zn1141   2.058       .  S
C1136      C1476   1.474       .  S
C1136      O1152   1.277       .  A
C1136      O1149   1.274       .  A
O1137      C1150   1.273       .  A
O1137     Cd1144   2.064       .  S
O1138      C1156   1.272       .  A
O1138     Cd1147   2.066       .  S
O1139      C1153   1.278   1_455  A
O1139     Cd1143   2.086   1_455  S
O1140      C1151   1.282       .  A
O1140     Cd1143   2.107       .  S
Zn1141     O1152   2.020       .  S
Zn1141     O1154   2.043       .  S
Zn1141     O1146   1.940       .  S
O1142      C1153   1.275       .  A
O1142     Cd1147   2.078       .  S
Cd1143     O1145   2.141       .  S
Cd1143     O1146   1.990       .  S
Cd1144     O1148   2.049       .  S
Cd1144     O1157   2.048       .  S
Cd1144     O1146   1.975       .  S
O1145      C1155   1.286       .  A
O1146     Cd1147   2.008       .  S
Cd1147     O1149   2.072       .  S
O1148      C1155   1.274       .  A
C1150      C1466   1.477       .  S
C1150      O1154   1.277       .  A
C1155      C1165   1.481       .  S
C1156      C1549   1.463       .  S
C1156      O1157   1.271       .  A
N1158      C1162   1.358   1_565  A
N1158      C1159   1.355       .  A
N1158      C1469   1.446       .  S
C1159      C1456   1.473       .  S
C1159      C1160   1.386   1_565  A
C1160      C1161   1.372       .  A
C1160      H1163   1.081       .  S
C1161      C1162   1.378       .  A
C1161      H1164   1.078       .  S
C1162      C1559   1.471   1_545  S
C1165      N1166   1.366       .  A
C1165      N1170   1.365   1_655  A
N1166      C1167   1.358       .  A
C1167      N1168   1.354   1_655  A
C1167      C1592   1.477       .  S
N1168      C1169   1.359       .  A
C1169      N1170   1.366       .  A
C1169      C1189   1.471       .  S
O1171      C1187   1.280       .  A
O1171     Zn1177   2.047       .  S
C1172      C1446   1.476       .  S
C1172      O1188   1.277       .  A
C1172      O1185   1.274       .  A
O1173      C1186   1.276       .  A
O1173     Cd1180   2.081       .  S
O1174      C1192   1.272       .  A
O1174     Cd1183   2.062       .  S
O1175     Cd1179   2.093       .  S
O1176      C1187   1.285       .  A
O1176     Cd1179   2.116       .  S
Zn1177     O1188   2.029       .  S
Zn1177     O1190   2.040       .  S
Zn1177     O1182   1.943       .  S
O1178      C1189   1.276       .  A
Cd1179     O1181   2.154       .  S
Cd1179     O1182   1.990       .  S
Cd1180     O1184   2.042       .  S
Cd1180     O1193   2.038       .  S
Cd1180     O1182   1.970       .  S
O1181      C1191   1.288       .  A
O1182     Cd1183   2.006       .  S
Cd1183     O1185   2.068       .  S
O1184      C1191   1.272       .  A
C1186      C1436   1.488       .  S
C1186      O1190   1.276       .  A
C1187      C1587   1.482       .  S
C1192      C1499   1.474       .  S
C1192      O1193   1.272       .  A
N1194      C1198   1.354   1_556  A
N1194      C1195   1.354       .  A
N1194      C1967   1.443       .  S
C1195      C1957   1.476       .  S
C1195      C1196   1.386   1_556  A
C1196      C1197   1.371       .  A
C1196      H1199   1.083       .  S
C1197      C1198   1.378       .  A
C1197      H1200   1.084       .  S
C1198      C1509   1.464       .  S
C1201      N1202   1.365       .  A
C1201      N1206   1.371       .  A
C1201      C1263   1.487       .  S
N1202      C1203   1.366       .  A
C1203      N1204   1.359       .  A
C1203      C1225   1.471       .  S
N1204      C1205   1.355       .  A
C1205      N1206   1.362       .  A
C1205      C1808   1.487       .  S
O1207      C1223   1.279       .  A
O1207     Zn1213   2.033   1_556  S
C1208      C1539   1.477       .  S
C1208      O1224   1.278       .  A
C1208      O1221   1.274       .  A
O1209      C1222   1.276       .  A
O1209     Cd1216   2.081       .  S
O1210      C1228   1.271       .  A
O1210     Cd1219   2.056       .  S
O1211      C1225   1.280       .  A
O1211     Cd1215   2.094       .  S
O1212      C1223   1.285   1_554  A
O1212     Cd1215   2.109       .  S
Zn1213     O1224   2.032       .  S
Zn1213     O1226   2.036       .  S
Zn1213     O1218   1.932       .  S
O1214      C1225   1.277       .  A
O1214     Cd1219   2.083       .  S
Cd1215     O1217   2.158       .  S
Cd1215     O1218   1.979       .  S
Cd1216     O1220   2.048       .  S
Cd1216     O1229   2.022       .  S
Cd1216     O1218   1.959       .  S
O1217      C1227   1.288       .  A
O1218     Cd1219   1.996       .  S
Cd1219     O1221   2.069       .  S
O1220      C1227   1.272       .  A
C1222      C1416   1.495       .  S
C1222      O1226   1.275       .  A
C1223      C1803   1.475       .  S
C1227      C1237   1.487       .  S
C1228      C1406   1.466       .  S
C1228      O1229   1.273       .  A
N1230      C1234   1.353       .  A
N1230      C1759   1.353       .  A
N1230      C1947   1.439       .  S
C1231      N1758   1.353       .  A
C1231      C1579   1.474       .  S
C1231      C1760   1.386   1_554  A
C1232      C1759   1.386       .  A
C1232      C1233   1.374       .  A
C1233      C1234   1.380       .  A
C1233      H1236   1.078       .  S
C1234      C1396   1.465       .  S
C1237      N1238   1.371       .  A
C1237      N1242   1.365       .  A
N1238      C1239   1.362       .  A
C1239      N1240   1.355       .  A
C1239      C1316   1.487       .  S
N1240      C1241   1.359       .  A
C1241      N1242   1.366       .  A
O1243      C1259   1.280       .  A
O1243     Zn1249   2.038       .  S
C1244      C1489   1.479       .  S
C1244      O1260   1.278   1_545  A
C1244      O1257   1.274       .  A
O1245      C1258   1.273       .  A
O1245     Cd1252   2.063       .  S
O1246      C1264   1.273       .  A
O1246     Cd1255   2.068       .  S
O1247      C1261   1.280   1_565  A
O1247     Cd1251   2.092       .  S
O1248      C1259   1.285       .  A
O1248     Cd1251   2.117       .  S
Zn1249     O1260   2.027       .  S
Zn1249     O1262   2.036       .  S
Zn1249     O1254   1.937       .  S
O1250      C1261   1.279       .  A
O1250     Cd1255   2.092   1_545  S
Cd1251     O1253   2.165       .  S
Cd1251     O1254   1.982       .  S
Cd1252     O1256   2.038       .  S
Cd1252     O1265   2.017       .  S
Cd1252     O1254   1.956       .  S
O1253      C1263   1.289       .  A
O1254     Cd1255   2.002       .  S
Cd1255     O1257   2.069   1_565  S
O1256      C1263   1.271       .  A
C1258      C1386   1.490       .  S
C1258      O1262   1.275       .  A
C1259      C1313   1.479       .  S
C1264      C1376   1.469       .  S
C1264      O1265   1.270       .  A
N1266      C1270   1.354       .  A
N1266      C1267   1.352       .  A
N1266      C1389   1.437       .  S
C1267      C1529   1.475       .  S
C1267      C1268   1.384       .  A
C1268      C1269   1.374       .  A
C1268      H1271   1.083       .  S
C1269      C1270   1.380       .  A
C1269      H1272   1.084       .  S
C1270      C1366   1.468       .  S
C1273      N1274   1.366       .  A
C1273      N1278   1.365       .  A
C1273      C1336   1.482       .  S
N1274      C1275   1.358       .  A
C1275      N1276   1.353       .  A
C1275      C1751   1.476       .  S
N1276      C1277   1.358       .  A
C1277      N1278   1.366       .  A
C1277      C1297   1.468       .  S
O1279      C1295   1.276       .  A
O1279     Zn1285   2.017       .  S
C1280      C1733   1.486       .  S
C1280      O1296   1.280       .  A
C1280      O1293   1.283       .  A
O1281      C1294   1.274       .  A
O1281     Cd1288   2.076       .  S
O1282      C1300   1.287       .  A
O1282     Cd1291   2.149       .  S
O1283      C1297   1.276       .  A
O1283     Cd1287   2.079       .  S
O1284      C1295   1.274       .  A
O1284     Cd1287   2.071       .  S
Zn1285     O1296   2.059       .  S
Zn1285     O1298   2.037       .  S
Zn1285     O1290   1.943       .  S
O1286      C1297   1.279       .  A
O1286     Cd1291   2.089       .  S
Cd1287     O1289   2.072       .  S
Cd1287     O1290   2.012       .  S
Cd1288     O1292   2.047       .  S
Cd1288     O1301   2.049       .  S
Cd1288     O1290   1.977       .  S
O1289      C1299   1.272       .  A
O1290     Cd1291   1.993       .  S
Cd1291     O1293   2.111       .  S
O1292      C1299   1.273       .  A
C1294      C1359   1.479       .  S
C1294      O1298   1.276       .  A
C1295      C1426   1.477       .  S
C1299      C1369   1.471       .  S
C1300      C1309   1.484       .  S
C1300      O1301   1.274       .  A
N1302      C1306   1.359       .  A
N1302      C1303   1.357       .  A
N1302      C1884   1.446   1_554  S
C1303      C1977   1.475   1_554  S
C1303      C1304   1.386       .  A
C1304      C1305   1.370   1_565  A
C1304      H1307   1.079   1_565  S
C1305      C1306   1.379   1_545  A
C1305      H1308   1.080       .  S
C1306      C1379   1.474       .  S
C1309      N1310   1.367       .  A
C1309      N1314   1.366       .  A
N1310      C1311   1.368       .  A
C1311      N1312   1.360       .  A
C1311      C1333   1.473       .  S
N1312      C1313   1.354       .  A
C1313      N1314   1.358       .  A
O1315      C1331   1.276       .  A
O1315     Zn1321   2.016       .  S
C1316      O1332   1.280       .  A
C1316      O1329   1.284       .  A
O1317      C1330   1.273       .  A
O1317     Cd1324   2.070       .  S
O1318      C1336   1.287       .  A
O1318     Cd1327   2.147       .  S
O1319      C1333   1.277       .  A
O1320      C1331   1.274       .  A
O1320     Cd1323   2.069       .  S
Zn1321     O1332   2.055       .  S
Zn1321     O1334   2.039       .  S
Zn1321     O1326   1.940       .  S
O1322     Cd1327   2.088       .  S
Cd1323     O1325   2.070       .  S
Cd1323     O1326   2.008       .  S
Cd1324     O1328   2.040       .  S
Cd1324     O1337   2.046       .  S
Cd1324     O1326   1.976       .  S
O1325      C1335   1.273       .  A
O1326     Cd1327   1.989       .  S
Cd1327     O1329   2.116       .  S
O1328      C1335   1.271       .  A
C1330      C1346   1.481       .  S
C1330      O1334   1.276       .  A
C1335      C1399   1.468       .  S
C1336      O1337   1.273       .  A
N1338      C1342   1.360       .  A
N1338      C1339   1.359       .  A
N1338      C1349   1.446       .  S
C1339      C1479   1.480       .  S
C1339      C1340   1.388       .  A
C1340      C1341   1.367       .  A
C1340      H1343   1.081       .  S
C1341      C1342   1.377       .  A
C1341      H1344   1.083       .  S
C1342      C1409   1.475       .  S
C1345      C1346   1.402       .  A
C1345      C1350   1.399       .  A
C1345      F1352   1.358       .  S
C1346      C1347   1.411       .  A
C1347      C1348   1.406       .  A
C1347      F1354   1.358       .  S
C1348      C1349   1.406       .  A
C1348      F1353   1.357       .  S
C1349      C1350   1.409       .  A
C1350      F1351   1.357       .  S
C1355      C1356   1.405       .  A
C1355      C1360   1.404       .  A
C1355      F1362   1.357       .  S
C1356      N1830   1.445       .  S
C1356      C1357   1.410       .  A
C1357      C1358   1.400       .  A
C1357      F1364   1.357   1_565  S
C1358      C1359   1.402       .  A
C1358      F1363   1.358       .  S
C1359      C1360   1.409       .  A
C1360      F1361   1.358       .  S
C1365      C1366   1.403       .  A
C1365      C1370   1.408       .  A
C1365      F1372   1.357       .  S
C1366      C1367   1.400       .  A
C1367      C1368   1.383       .  A
C1367      F1374   1.359       .  S
C1368      C1369   1.404       .  A
C1368      F1373   1.359       .  S
C1369      C1370   1.410       .  A
C1370      F1371   1.357       .  S
C1375      C1376   1.407   1_545  A
C1375      C1380   1.402       .  A
C1375      F1382   1.358       .  S
C1376      C1377   1.404       .  A
C1377      C1378   1.383       .  A
C1377      F1384   1.359       .  S
C1378      C1379   1.402       .  A
C1378      F1383   1.354       .  S
C1379      C1380   1.406   1_565  A
C1380      F1381   1.358       .  S
C1385      C1386   1.409       .  A
C1385      C1390   1.397       .  A
C1385      F1392   1.358       .  S
C1386      C1387   1.414       .  A
C1387      C1388   1.404       .  A
C1387      F1394   1.358       .  S
C1388      C1389   1.402       .  A
C1388      F1393   1.356       .  S
C1389      C1390   1.402       .  A
C1390      F1391   1.357       .  S
C1395      C1396   1.400       .  A
C1395      C1400   1.385       .  A
C1395      F1402   1.360       .  S
C1396      C1397   1.402       .  A
C1397      C1398   1.404       .  A
C1398      C1399   1.407       .  A
C1398      F1403   1.357       .  S
C1399      C1400   1.405       .  A
C1400      F1401   1.359       .  S
C1405      C1406   1.407       .  A
C1405      C1410   1.401       .  A
C1405      F1412   1.358       .  S
C1406      C1407   1.401       .  A
C1407      C1408   1.380       .  A
C1407      F1414   1.360       .  S
C1408      C1409   1.404       .  A
C1408      F1413   1.352       .  S
C1409      C1410   1.407       .  A
C1410      F1411   1.358       .  S
C1415      C1416   1.415       .  A
C1415      C1420   1.405       .  A
C1415      F1422   1.358   1_554  S
C1416      C1417   1.410       .  A
C1417      C1418   1.400       .  A
C1417      F1424   1.358       .  S
C1418      C1419   1.402       .  A
C1418      F1423   1.357       .  S
C1419      N1758   1.439       .  S
C1419      C1420   1.402       .  A
C1420      F1949   1.356   1_554  S
F1421      C1948   1.356       .  S
C1425      C1426   1.413       .  A
C1425      C1430   1.404       .  A
C1425      F1432   1.357       .  S
C1426      C1955   1.402       .  A
C1427      C1954   1.402   1_554  A
C1427      C1428   1.396       .  A
C1427      F1434   1.358       .  S
C1428      C1957   1.409   1_554  A
C1428      F1433   1.359       .  S
C1429      C1723   1.476       .  S
C1429      C1956   1.409       .  A
C1429      C1430   1.400       .  A
C1430      F1431   1.357       .  S
C1435      C1436   1.404       .  A
C1435      C1440   1.399       .  A
C1435      F1442   1.358       .  S
C1436      C1437   1.413       .  A
C1437      C1966   1.407       .  A
C1437      F1972   1.357       .  S
C1438      C1965   1.408       .  A
C1438      C1967   1.403       .  A
C1438      F1443   1.356   1_556  S
C1439      N1722   1.443       .  S
C1439      C1966   1.404       .  A
C1439      C1440   1.407       .  A
C1440      F1441   1.358       .  S
F1444      C1965   1.357       .  S
C1445      C1450   1.397       .  A
C1445      F1452   1.358       .  S
C1446      C1975   1.411       .  A
C1447      C1974   1.411       .  A
C1447      F1454   1.358       .  S
C1448      C1977   1.401       .  A
C1449      C1831   1.476       .  S
C1449      C1976   1.401       .  A
C1449      C1450   1.409       .  A
C1450      F1451   1.358       .  S
C1455      C1456   1.408       .  A
C1455      C1460   1.395       .  A
C1455      F1462   1.358       .  S
C1456      C1457   1.400       .  A
C1458      F1463   1.356       .  S
C1459      C1460   1.400       .  A
C1460      F1461   1.358       .  S
C1465      C1466   1.401       .  A
C1465      C1470   1.398       .  A
C1465      F1472   1.358       .  S
C1466      C1467   1.409       .  A
C1467      C1468   1.405       .  A
C1467      F1474   1.358       .  S
C1468      C1469   1.406       .  A
C1468      F1473   1.356       .  S
C1469      C1470   1.410       .  A
C1470      F1471   1.358   1_565  S
C1475      C1476   1.410       .  A
C1475      C1480   1.403       .  A
C1475      F1482   1.356       .  S
C1476      C1477   1.400       .  A
C1477      C1478   1.395       .  A
C1477      F1484   1.358       .  S
C1478      C1479   1.411       .  A
C1478      F1483   1.359       .  S
C1479      C1480   1.402       .  A
C1480      F1481   1.357       .  S
C1485      C1486   1.401       .  A
C1485      F1492   1.357       .  S
C1486      C1487   1.408       .  A
C1487      F1494   1.359       .  S
C1488      C1489   1.402       .  A
C1488      F1493   1.357       .  S
C1489      C1490   1.414   1_545  A
C1490      F1491   1.358       .  S
C1495      C1496   1.402       .  A
C1495      C1500   1.407       .  A
C1496      C1497   1.399       .  A
C1497      C1498   1.381       .  A
C1497      F1504   1.358       .  S
C1498      C1499   1.406       .  A
C1498      F1503   1.359       .  S
C1499      C1500   1.413       .  A
C1500      F1501   1.358       .  S
C1505      C1506   1.412       .  A
C1505      C1510   1.405       .  A
C1505      F1512   1.357       .  S
C1506      C1507   1.408       .  A
C1507      C1508   1.381       .  A
C1507      F1514   1.359       .  S
C1508      C1509   1.399       .  A
C1508      F1513   1.359       .  S
C1509      C1510   1.400       .  A
C1510      F1511   1.357       .  S
C1515      C1516   1.404       .  A
C1515      C1520   1.406       .  A
C1515      F1522   1.356       .  S
C1516      C1517   1.403       .  A
C1517      C1518   1.397       .  A
C1517      F1524   1.357       .  S
C1518      C1519   1.406       .  A
C1518      F1523   1.358       .  S
C1519      C1520   1.414       .  A
C1520      F1521   1.357       .  S
C1525      C1526   1.413       .  A
C1525      C1530   1.404       .  A
C1525      F1532   1.358       .  S
C1526      C1527   1.402       .  A
C1527      C1528   1.397       .  A
C1527      F1534   1.358       .  S
C1528      C1529   1.408       .  A
C1528      F1533   1.358       .  S
C1529      C1530   1.400       .  A
C1530      F1531   1.357       .  S
C1535      C1536   1.401       .  A
C1535      C1540   1.403       .  A
C1535      F2070   1.358       .  S
C1536      C1537   1.408       .  A
C1537      C1538   1.399       .  A
C1537      F1544   1.358   1_554  S
C1538      C1539   1.401       .  A
C1538      F1543   1.357   1_554  S
C1539      C1540   1.412       .  A
C1540      F1541   1.359       .  S
F1542      C2063   1.358       .  S
C1545      C1546   1.404       .  A
C1545      C1550   1.403       .  A
C1545      F1552   1.357       .  S
C1546      C1547   1.402       .  A
C1547      C1548   1.387       .  A
C1547      F1554   1.359       .  S
C1548      C1549   1.402       .  A
C1548      F1553   1.358       .  S
C1549      C1550   1.405       .  A
C1550      F1551   1.357       .  S
C1555      C1556   1.405       .  A
C1555      C1560   1.381       .  A
C1555      F1562   1.360       .  S
C1556      C1557   1.410   1_565  A
C1557      C1558   1.402       .  A
C1557      F1564   1.357       .  S
C1558      C1559   1.404   1_545  A
C1558      F1563   1.357       .  S
C1559      C1560   1.402       .  A
C1560      F1561   1.356       .  S
C1565      C1566   1.412       .  A
C1565      C1570   1.400       .  A
C1565      F1572   1.358       .  S
C1566      C1567   1.415       .  A
C1567      C1568   1.406       .  A
C1567      F1574   1.357   1_554  S
C1568      C1569   1.403       .  A
C1568      F2101   1.357   1_554  S
C1569      N1614   1.440       .  S
C1569      C1570   1.401       .  A
C1570      F1571   1.357       .  S
F1573      C2096   1.357       .  S
C1575      C1576   1.401       .  A
C1575      F2110   1.357   1_554  S
C1576      C1577   1.412       .  A
C1577      F1584   1.359   1_545  S
C1578      C1579   1.401       .  A
C1578      F1583   1.357       .  S
C1579      C2108   1.408       .  A
C1580      C2107   1.407       .  A
C1580      F1581   1.359       .  S
F1582      C2103   1.357       .  S
C1585      N1586   1.368       .  A
C1585      N1590   1.367       .  A
C1585      C1648   1.486       .  S
N1586      C1587   1.359       .  A
C1587      N1588   1.354       .  A
N1588      C1589   1.359       .  A
C1589      N1590   1.368       .  A
O1591      C1607   1.278   1_565  A
O1591     Zn1597   2.026       .  S
C1592      O1608   1.280       .  A
C1592      O1605   1.285       .  A
O1593      C1606   1.274       .  A
O1593     Cd1600   2.071       .  S
O1594      C1612   1.289       .  A
O1594     Cd1603   2.162       .  S
O1595      C1609   1.276   1_655  A
O1595     Cd1599   2.081   1_545  S
O1596      C1607   1.273       .  A
O1596     Cd1599   2.061   1_545  S
Zn1597     O1608   2.035       .  S
Zn1597     O1610   2.047       .  S
Zn1597     O1602   1.931       .  S
O1598      C1609   1.279   1_565  A
O1598     Cd1603   2.092   1_455  S
Cd1599     O1601   2.065       .  S
Cd1599     O1602   2.004       .  S
Cd1600     O1604   2.019       .  S
Cd1600     O1613   2.037       .  S
Cd1600     O1602   1.955       .  S
O1601      C1611   1.273       .  A
O1602     Cd1603   1.982       .  S
Cd1603     O1605   2.111       .  S
O1604      C1611   1.271       .  A
C1606      C2094   1.497       .  S
C1606      O1610   1.276       .  A
C1607      C2104   1.472       .  S
C1611      C2084   1.469       .  S
C1612      C1621   1.486       .  S
C1612      O1613   1.271       .  A
N1614      C1618   1.353   1_554  A
C1615      C2064   1.473       .  S
C1616      C1617   1.373   1_554  A
C1616      H1619   1.085       .  S
C1617      C1618   1.380       .  A
C1617      H1620   1.080       .  S
C1618      C2074   1.467       .  S
C1621      N1622   1.370       .  A
C1621      N1626   1.365   1_655  A
N1622      C1623   1.360       .  A
C1623      N1624   1.354   1_655  A
C1623      C1679   1.485       .  S
N1624      C1625   1.359       .  A
C1625      N1626   1.366       .  A
C1625      C1645   1.470       .  S
O1627      C1643   1.276       .  A
O1627     Zn1633   2.021       .  S
C1628      C1659   1.480       .  S
C1628      O1644   1.279       .  A
C1628      O1641   1.284       .  A
O1629      C1642   1.274       .  A
O1629     Cd1636   2.068       .  S
O1630      C1648   1.287       .  A
O1630     Cd1639   2.157       .  S
O1631      C1645   1.277       .  A
O1631     Cd1635   2.086       .  S
O1632      C1643   1.274       .  A
O1632     Cd1635   2.069       .  S
Zn1633     O1644   2.042       .  S
Zn1633     O1646   2.038       .  S
Zn1633     O1638   1.946       .  S
O1634      C1645   1.279       .  A
O1634     Cd1639   2.090       .  S
Cd1635     O1637   2.065       .  S
Cd1635     O1638   2.009       .  S
Cd1636     O1640   2.029       .  S
Cd1636     O1649   2.046       .  S
Cd1636     O1638   1.966       .  S
O1637      C1647   1.272       .  A
O1638     Cd1639   1.989       .  S
Cd1639     O1641   2.112       .  S
O1640      C1647   1.270       .  A
C1642      C2047   1.489       .  S
C1642      O1646   1.275       .  A
C1643      C2054   1.478       .  S
C1647      C2034   1.475       .  S
C1648      O1649   1.273       .  A
N1650      C1654   1.356       .  A
N1650      C1651   1.354       .  A
N1650      C2044   1.441       .  S
C1651      C2014   1.478       .  S
C1651      C1652   1.386       .  A
C1652      C1653   1.373       .  A
C1653      C1654   1.378       .  A
C1653      H1656   1.084       .  S
C1654      C2024   1.469       .  S
C1657      N1658   1.369       .  A
C1657      N1662   1.365       .  A
C1657      C1719   1.484       .  S
N1658      C1659   1.360       .  A
C1659      N1660   1.353       .  A
N1660      C1661   1.358       .  A
C1661      N1662   1.366       .  A
C1661      C1681   1.468   1_455  S
O1663      C1679   1.280       .  A
O1663     Zn1669   2.061       .  S
C1664      C2004   1.473       .  S
C1664      O1680   1.277       .  A
C1664      O1677   1.274       .  A
O1665      C1678   1.273       .  A
O1665     Cd1672   2.066       .  S
O1666      C1684   1.272       .  A
O1666     Cd1675   2.067       .  S
O1667      C1681   1.278   1_455  A
O1667     Cd1671   2.085   1_455  S
O1668      C1679   1.282       .  A
O1668     Cd1671   2.107       .  S
Zn1669     O1680   2.020       .  S
Zn1669     O1682   2.046       .  S
Zn1669     O1674   1.940       .  S
O1670      C1681   1.275       .  A
O1670     Cd1675   2.079       .  S
Cd1671     O1673   2.140       .  S
Cd1671     O1674   1.990       .  S
Cd1672     O1676   2.048       .  S
Cd1672     O1685   2.048       .  S
Cd1672     O1674   1.976       .  S
O1673      C1683   1.286       .  A
O1674     Cd1675   2.008       .  S
Cd1675     O1677   2.070       .  S
O1676      C1683   1.274       .  A
C1678      C1994   1.478       .  S
C1678      O1682   1.277       .  A
C1683      C1693   1.480       .  S
C1684      C2077   1.463       .  S
C1684      O1685   1.271       .  A
N1686      C1690   1.359   1_565  A
N1686      C1687   1.356       .  A
N1686      C1997   1.446       .  S
C1687      C1984   1.475       .  S
C1687      C1688   1.386   1_565  A
C1688      C1689   1.371       .  A
C1688      H1691   1.081       .  S
C1689      C1690   1.378       .  A
C1689      H1692   1.078       .  S
C1690      C2087   1.473   1_545  S
C1693      N1694   1.366       .  A
C1693      N1698   1.365   1_655  A
N1694      C1695   1.358       .  A
C1695      N1696   1.355   1_655  A
N1696      C1697   1.360       .  A
C1697      N1698   1.365       .  A
C1697      C1717   1.471       .  S
O1699      C1715   1.279       .  A
O1699     Zn1705   2.043   1_554  S
C1700      C1974   1.475       .  S
C1700      O1716   1.277       .  A
C1700      O1713   1.274       .  A
O1701      C1714   1.276       .  A
O1701     Cd1708   2.083       .  S
O1702      C1720   1.272       .  A
O1702     Cd1711   2.065       .  S
O1703     Cd1707   2.093       .  S
O1704      C1715   1.285   1_556  A
O1704     Cd1707   2.117       .  S
Zn1705     O1716   2.025       .  S
Zn1705     O1718   2.039       .  S
Zn1705     O1710   1.942       .  S
O1706      C1717   1.276       .  A
Cd1707     O1709   2.154       .  S
Cd1707     O1710   1.991       .  S
Cd1708     O1712   2.043       .  S
Cd1708     O1721   2.038       .  S
Cd1708     O1710   1.970       .  S
O1709      C1719   1.288       .  A
O1710     Cd1711   2.007       .  S
Cd1711     O1713   2.067       .  S
O1712      C1719   1.272       .  A
C1714      C1964   1.490       .  S
C1714      O1718   1.275       .  A
C1720      C2027   1.476       .  S
C1720      O1721   1.272       .  A
N1722      C1726   1.355       .  A
N1722      C1723   1.355       .  A
C1723      C1724   1.386       .  A
C1724      C1725   1.371       .  A
C1724      H1727   1.083       .  S
C1725      C1726   1.378       .  A
C1725      H1728   1.084       .  S
C1726      C2037   1.464       .  S
C1729      N1730   1.365       .  A
C1729      N1734   1.371       .  A
C1729      C1791   1.487       .  S
N1730      C1731   1.366       .  A
C1731      N1732   1.359       .  A
C1731      C1753   1.470       .  S
N1732      C1733   1.355       .  A
C1733      N1734   1.361       .  A
O1735      C1751   1.280       .  A
O1735     Zn1741   2.036       .  S
C1736      C2067   1.477       .  S
C1736      O1752   1.278       .  A
C1736      O1749   1.274       .  A
O1737      C1750   1.276       .  A
O1737     Cd1744   2.081       .  S
O1738      C1756   1.271       .  A
O1738     Cd1747   2.055       .  S
O1739      C1753   1.280       .  A
O1739     Cd1743   2.095       .  S
O1740      C1751   1.285       .  A
O1740     Cd1743   2.109       .  S
Zn1741     O1752   2.034       .  S
Zn1741     O1754   2.037       .  S
Zn1741     O1746   1.932       .  S
O1742      C1753   1.276       .  A
O1742     Cd1747   2.080       .  S
Cd1743     O1745   2.158       .  S
Cd1743     O1746   1.979       .  S
Cd1744     O1748   2.049       .  S
Cd1744     O1757   2.023       .  S
Cd1744     O1746   1.959       .  S
O1745      C1755   1.288       .  A
O1746     Cd1747   1.995       .  S
Cd1747     O1749   2.066       .  S
O1748      C1755   1.272       .  A
C1750      C1944   1.495       .  S
C1750      O1754   1.275       .  A
C1755      C1765   1.488       .  S
C1756      C1934   1.466       .  S
C1756      O1757   1.273       .  A
N1758      C1762   1.353   1_554  A
C1759      C2107   1.474       .  S
C1760      C1761   1.374       .  A
C1761      C1762   1.380       .  A
C1761      H1764   1.078       .  S
C1762      C1924   1.465       .  S
C1765      N1766   1.371       .  A
C1765      N1770   1.365       .  A
N1766      C1767   1.362       .  A
C1767      N1768   1.355       .  A
C1767      C1844   1.487       .  S
N1768      C1769   1.359       .  A
C1769      N1770   1.366       .  A
O1771      C1787   1.280       .  A
O1771     Zn1777   2.041       .  S
C1772      C2017   1.477       .  S
C1772      O1788   1.278   1_545  A
C1772      O1785   1.274       .  A
O1773      C1786   1.273       .  A
O1773     Cd1780   2.061       .  S
O1774      C1792   1.274       .  A
O1774     Cd1783   2.073       .  S
O1775      C1789   1.280   1_565  A
O1775     Cd1779   2.093       .  S
O1776      C1787   1.286       .  A
O1776     Cd1779   2.119       .  S
Zn1777     O1788   2.027       .  S
Zn1777     O1790   2.038       .  S
Zn1777     O1782   1.937       .  S
O1778      C1789   1.278       .  A
O1778     Cd1783   2.092   1_545  S
Cd1779     O1781   2.166       .  S
Cd1779     O1782   1.984       .  S
Cd1780     O1784   2.036       .  S
Cd1780     O1793   2.017       .  S
Cd1780     O1782   1.956       .  S
O1781      C1791   1.289       .  A
O1782     Cd1783   2.007       .  S
Cd1783     O1785   2.068   1_565  S
O1784      C1791   1.271       .  A
C1786      C1914   1.489       .  S
C1786      O1790   1.275       .  A
C1787      C1841   1.481       .  S
C1792      C1904   1.472       .  S
C1792      O1793   1.270       .  A
N1794      C1798   1.354       .  A
N1794      C1795   1.353       .  A
N1794      C1917   1.438       .  S
C1795      C2057   1.476       .  S
C1795      C1796   1.384       .  A
C1796      C1797   1.374       .  A
C1796      H1799   1.082       .  S
C1797      C1798   1.379       .  A
C1797      H1800   1.084       .  S
C1798      C1894   1.468       .  S
C1801      N1802   1.366       .  A
C1801      N1806   1.366       .  A
C1801      C1864   1.482       .  S
N1802      C1803   1.358       .  A
C1803      N1804   1.353       .  A
N1804      C1805   1.358       .  A
C1805      N1806   1.366       .  A
C1805      C1825   1.468       .  S
O1807      C1823   1.276       .  A
O1807     Zn1813   2.019       .  S
C1808      O1824   1.280       .  A
C1808      O1821   1.283   1_554  A
O1809      C1822   1.274       .  A
O1809     Cd1816   2.078       .  S
O1810      C1828   1.287       .  A
O1810     Cd1819   2.152       .  S
O1811      C1825   1.276       .  A
O1811     Cd1815   2.079       .  S
O1812      C1823   1.274       .  A
O1812     Cd1815   2.070       .  S
Zn1813     O1824   2.060   1_556  S
Zn1813     O1826   2.039       .  S
Zn1813     O1818   1.944       .  S
O1814      C1825   1.279       .  A
O1814     Cd1819   2.090       .  S
Cd1815     O1817   2.071       .  S
Cd1815     O1818   2.012       .  S
Cd1816     O1820   2.046       .  S
Cd1816     O1829   2.050       .  S
Cd1816     O1818   1.978       .  S
O1817      C1827   1.272       .  A
O1818     Cd1819   1.993       .  S
Cd1819     O1821   2.114       .  S
O1820      C1827   1.272       .  A
C1822      C1887   1.480       .  S
C1822      O1826   1.276       .  A
C1823      C1954   1.477       .  S
C1827      C1897   1.472       .  S
C1828      C1837   1.486       .  S
C1828      O1829   1.274       .  A
N1830      C1834   1.359       .  A
N1830      C1831   1.356       .  A
C1831      C1832   1.386   1_565  A
C1832      C1833   1.372       .  A
C1832      H1835   1.079       .  S
C1833      C1834   1.379   1_545  A
C1833      H1836   1.080       .  S
C1834      C1907   1.475       .  S
C1837      N1838   1.367       .  A
C1837      N1842   1.367       .  A
N1838      C1839   1.367       .  A
C1839      N1840   1.359       .  A
C1839      C1861   1.472       .  S
N1840      C1841   1.354       .  A
C1841      N1842   1.359       .  A
O1843      C1859   1.276       .  A
O1843     Zn1849   2.013       .  S
C1844      O1860   1.279       .  A
C1844      O1857   1.284       .  A
O1845      C1858   1.274       .  A
O1845     Cd1852   2.073       .  S
O1846      C1864   1.287       .  A
O1846     Cd1855   2.148       .  S
O1847      C1861   1.277       .  A
O1848      C1859   1.274       .  A
O1848     Cd1851   2.071       .  S
Zn1849     O1860   2.055       .  S
Zn1849     O1862   2.040       .  S
Zn1849     O1854   1.940       .  S
O1850     Cd1855   2.091       .  S
Cd1851     O1853   2.070       .  S
Cd1851     O1854   2.010       .  S
Cd1852     O1856   2.040       .  S
Cd1852     O1865   2.047       .  S
Cd1852     O1854   1.977       .  S
O1853      C1863   1.273       .  A
O1854     Cd1855   1.990       .  S
Cd1855     O1857   2.117       .  S
O1856      C1863   1.271       .  A
C1858      C1874   1.483       .  S
C1858      O1862   1.276       .  A
C1863      C1927   1.468       .  S
C1864      O1865   1.274       .  A
N1866      C1870   1.360       .  A
N1866      C1867   1.359       .  A
N1866      C1877   1.446       .  S
C1867      C2007   1.479       .  S
C1867      C1868   1.387       .  A
C1868      C1869   1.367       .  A
C1868      H1871   1.081       .  S
C1869      C1870   1.378       .  A
C1869      H1872   1.083       .  S
C1870      C1937   1.476       .  S
C1873      C1874   1.403       .  A
C1873      C1878   1.400       .  A
C1873      F1880   1.358       .  S
C1874      C1875   1.411       .  A
C1875      C1876   1.406       .  A
C1875      F1882   1.358       .  S
C1876      C1877   1.406       .  A
C1876      F1881   1.357       .  S
C1877      C1878   1.409       .  A
C1878      F1879   1.357       .  S
C1883      C1884   1.405       .  A
C1883      C1888   1.405       .  A
C1883      F1890   1.357       .  S
C1884      C1885   1.410       .  A
C1885      C1886   1.401       .  A
C1885      F1892   1.357   1_565  S
C1886      C1887   1.402       .  A
C1886      F1891   1.358       .  S
C1887      C1888   1.409       .  A
C1888      F1889   1.358       .  S
C1893      C1894   1.403       .  A
C1893      C1898   1.408       .  A
C1893      F1900   1.357       .  S
C1894      C1895   1.399       .  A
C1895      C1896   1.383       .  A
C1895      F1902   1.359       .  S
C1896      C1897   1.405       .  A
C1896      F1901   1.359       .  S
C1897      C1898   1.411       .  A
C1898      F1899   1.357       .  S
C1903      C1904   1.408   1_545  A
C1903      C1908   1.403       .  A
C1903      F1910   1.358       .  S
C1904      C1905   1.405       .  A
C1905      C1906   1.383       .  A
C1905      F1912   1.359       .  S
C1906      C1907   1.402       .  A
C1906      F1911   1.355       .  S
C1907      C1908   1.406   1_565  A
C1908      F1909   1.358       .  S
C1913      C1914   1.409       .  A
C1913      C1918   1.397       .  A
C1913      F1920   1.358       .  S
C1914      C1915   1.414       .  A
C1915      C1916   1.405       .  A
C1915      F1922   1.358       .  S
C1916      C1917   1.402       .  A
C1916      F1921   1.356       .  S
C1917      C1918   1.402       .  A
C1918      F1919   1.357       .  S
C1923      C1924   1.400       .  A
C1923      C1928   1.385       .  A
C1923      F1930   1.360       .  S
C1924      C1925   1.402       .  A
C1925      C1926   1.404       .  A
C1926      C1927   1.408       .  A
C1926      F1931   1.357       .  S
C1927      C1928   1.406       .  A
C1928      F1929   1.359       .  S
C1933      C1934   1.406       .  A
C1933      C1938   1.401       .  A
C1933      F1940   1.358       .  S
C1934      C1935   1.401       .  A
C1935      C1936   1.381       .  A
C1935      F1942   1.360       .  S
C1936      C1937   1.405       .  A
C1936      F1941   1.352       .  S
C1937      C1938   1.407       .  A
C1938      F1939   1.358       .  S
C1943      C1944   1.416       .  A
C1943      C1948   1.405       .  A
C1943      F1950   1.358       .  S
C1944      C1945   1.410       .  A
C1945      C1946   1.400       .  A
C1945      F1952   1.358       .  S
C1946      C1947   1.402       .  A
C1946      F1951   1.357       .  S
C1947      C1948   1.402       .  A
C1953      C1954   1.413       .  A
C1953      C1958   1.404       .  A
C1953      F1960   1.358       .  S
C1955      C1956   1.396       .  A
C1955      F1962   1.358       .  S
C1956      F1961   1.359       .  S
C1957      C1958   1.400       .  A
C1958      F1959   1.357       .  S
C1963      C1964   1.405       .  A
C1963      C1968   1.399       .  A
C1963      F1970   1.358       .  S
C1964      C1965   1.414       .  A
C1966      F1971   1.356       .  S
C1967      C1968   1.406       .  A
C1968      F1969   1.358       .  S
C1973      C1978   1.396   1_556  A
C1973      F1980   1.358   1_556  S
C1975      F1982   1.358       .  S
C1977      C1978   1.409   1_556  A
C1978      F1979   1.358       .  S
C1983      C1984   1.409       .  A
C1983      C1988   1.395       .  A
C1983      F1990   1.358       .  S
C1984      C1985   1.400       .  A
C1986      F1991   1.357       .  S
C1987      C1988   1.400       .  A
C1988      F1989   1.358       .  S
C1993      C1994   1.401       .  A
C1993      C1998   1.398       .  A
C1993      F2000   1.358       .  S
C1994      C1995   1.409       .  A
C1995      C1996   1.405       .  A
C1995      F2002   1.358       .  S
C1996      C1997   1.406       .  A
C1996      F2001   1.356       .  S
C1997      C1998   1.410       .  A
C1998      F1999   1.358   1_565  S
C2003      C2004   1.410       .  A
C2003      C2008   1.402       .  A
C2003      F2010   1.356       .  S
C2004      C2005   1.400       .  A
C2005      C2006   1.395       .  A
C2005      F2012   1.358       .  S
C2006      C2007   1.411       .  A
C2006      F2011   1.359       .  S
C2007      C2008   1.402       .  A
C2008      F2009   1.357       .  S
C2013      C2014   1.401       .  A
C2013      F2020   1.357       .  S
C2014      C2015   1.408       .  A
C2015      F2022   1.359       .  S
C2016      C2017   1.401       .  A
C2016      F2021   1.357       .  S
C2017      C2018   1.413       .  A
C2018      F2019   1.359   1_545  S
C2023      C2024   1.402       .  A
C2023      C2028   1.407       .  A
C2024      C2025   1.399       .  A
C2025      C2026   1.381       .  A
C2025      F2032   1.358       .  S
C2026      C2027   1.407       .  A
C2026      F2031   1.359       .  S
C2027      C2028   1.413       .  A
C2028      F2029   1.358       .  S
C2033      C2034   1.413       .  A
C2033      C2038   1.405       .  A
C2033      F2040   1.357       .  S
C2034      C2035   1.409       .  A
C2035      C2036   1.380       .  A
C2035      F2042   1.359       .  S
C2036      C2037   1.399       .  A
C2036      F2041   1.359       .  S
C2037      C2038   1.400       .  A
C2038      F2039   1.357       .  S
C2043      C2044   1.404       .  A
C2043      C2048   1.407       .  A
C2043      F2050   1.356       .  S
C2044      C2045   1.403       .  A
C2045      C2046   1.396       .  A
C2045      F2052   1.357       .  S
C2046      C2047   1.406       .  A
C2046      F2051   1.358       .  S
C2047      C2048   1.414       .  A
C2048      F2049   1.357       .  S
C2053      C2054   1.413       .  A
C2053      C2058   1.404       .  A
C2053      F2060   1.358       .  S
C2054      C2055   1.402       .  A
C2055      C2056   1.398       .  A
C2055      F2062   1.358       .  S
C2056      C2057   1.408       .  A
C2056      F2061   1.358       .  S
C2057      C2058   1.400       .  A
C2058      F2059   1.357       .  S
C2063      C2064   1.401       .  A
C2063      C2068   1.403       .  A
C2064      C2065   1.408       .  A
C2065      C2066   1.399       .  A
C2065      F2072   1.358       .  S
C2066      C2067   1.401       .  A
C2066      F2071   1.357       .  S
C2067      C2068   1.412       .  A
C2068      F2069   1.359       .  S
C2073      C2074   1.404       .  A
C2073      C2078   1.403       .  A
C2073      F2080   1.357   1_556  S
C2074      C2075   1.402       .  A
C2075      C2076   1.387       .  A
C2075      F2082   1.359       .  S
C2076      C2077   1.402       .  A
C2076      F2081   1.358       .  S
C2077      C2078   1.406       .  A
C2078      F2079   1.357       .  S
C2083      C2084   1.404       .  A
C2083      C2088   1.381       .  A
C2083      F2090   1.360       .  S
C2084      C2085   1.408   1_565  A
C2085      C2086   1.402       .  A
C2085      F2092   1.357       .  S
C2086      C2087   1.405   1_545  A
C2086      F2091   1.358       .  S
C2087      C2088   1.403       .  A
C2088      F2089   1.355       .  S
C2093      C2094   1.412       .  A
C2093      C2098   1.400       .  A
C2093      F2100   1.358       .  S
C2094      C2095   1.415       .  A
C2095      C2096   1.405       .  A
C2095      F2102   1.357       .  S
C2096      C2097   1.403       .  A
C2097      C2098   1.401       .  A
C2098      F2099   1.357       .  S
C2103      C2104   1.401       .  A
C2104      C2105   1.411       .  A
C2105      F2112   1.359   1_545  S
C2106      C2107   1.401       .  A
C2106      F2111   1.357       .  S
C2108      F2109   1.359   1_554  S
