geometry optimzed in LAMMPS
_audit_creation_date              2020-11-30 
_audit_creation_method            'lammps2cif' 
_symmetry_space_group_name_H-M    'P1' 
_symmetry_Int_Tables_number       1 
_symmetry_cell_setting            triclinic 
loop_ 
_symmetry_equiv_pos_as_xyz 
  x,y,z 
_cell_length_a                    57.62067452 
_cell_length_b                    57.601832957549576 
_cell_length_c                    43.85100307604083 
_cell_angle_alpha                 90.6511299792671 
_cell_angle_beta                  89.7623315393015 
_cell_angle_gamma                 89.2076579369657 
loop_ 
_atom_site_label 
_atom_site_type_symbol 
_atom_site_fract_x 
_atom_site_fract_y 
_atom_site_fract_z 
_atom_site_charge 
Zr1        Zr  0.41065558  0.63609916  0.06635312     2.17500
O2          O  0.41593066  0.65935744  0.11258080    -0.51900
O3          O  0.37823605  0.65713509  0.04185290    -0.75100
O4          O  0.42729018  0.67331787  0.05201058    -0.81900
O5          O  0.36503556  0.59518227  0.10042280    -0.83700
O6          O  0.45822952  0.66524280  0.02142626    -0.79300
O7          O  0.37888027  0.63204304  0.10087307    -0.90900
O8          O  0.36994062  0.63715030  0.99821937    -0.76900
O9          O  0.42104030  0.63391782  0.01417694    -0.86400
O10         O  0.38605206  0.60776001  0.04404843    -0.86100
O11         O  0.45096741  0.62461964  0.06803018    -0.72800
O12         O  0.41834410  0.60031423  0.09327482    -0.85000
Zr13       Zr  0.44488472  0.55913205  0.01584024     2.26400
Zr14       Zr  0.46102343  0.62315521  0.01540638     2.06300
Zr15       Zr  0.39302315  0.57249758  0.07027789     2.10000
Zr16       Zr  0.39687949  0.60505312  0.99202647     1.78800
O17         O  0.38773808  0.55570458  0.12046984    -0.93800
O18         O  0.40083299  0.62725871  0.94539483    -0.41600
O19         O  0.40410724  0.56918572  0.01723653    -0.78200
O20         O  0.43699615  0.59526823  0.99073861    -0.96900
O21         O  0.46974209  0.58676490  0.03937793    -0.90200
O22         O  0.43326655  0.56073020  0.06830809    -0.93000
C23         C  0.36614511  0.65359511  0.01756775     1.00700
C24         C  0.36414816  0.61670020  0.10846120     1.13600
C25         C  0.44432150  0.67958908  0.03505560     1.04400
O26         O  0.46821359  0.64467018  0.96912310    -0.95200
O27         O  0.48368231  0.60325094  0.97716330    -0.90900
O28         O  0.47082750  0.56629006  0.97345637    -0.84100
C29         C  0.48344495  0.58314779  0.96456675     1.11100
O30         O  0.46721161  0.61371276  0.13372547    -0.97200
Zr31       Zr  0.45853897  0.58725677  0.09165958     1.88900
O32         O  0.47213256  0.53354791  0.04330793    -0.73800
O33         O  0.49952895  0.63135329  0.03509827    -0.53100
O34         O  0.50019454  0.59385848  0.09230960    -0.97800
O35         O  0.45161420  0.57261503  0.14277986    -0.55000
O36         O  0.47408495  0.54631594  0.09226202    -0.74300
C37         C  0.47736259  0.53041767  0.07145283     0.98000
O38         O  0.44988997  0.53318187  0.97145028    -0.63200
O39         O  0.35676436  0.55952549  0.04787037    -0.58000
O40         O  0.41073944  0.53504166  0.02010421    -0.94600
O41         O  0.39626657  0.53084192  0.06624962    -0.93100
O42         O  0.35905899  0.58747004  0.98483040    -0.93400
O43         O  0.39755755  0.58185357  0.94518751    -0.92200
C44         C  0.40696228  0.52230806  0.04323294     1.16800
H45         H  0.36985169  0.61195703  0.04590992     0.32800
H46         H  0.44042108  0.59458581  0.96914924     0.43600
H47         H  0.43459009  0.54593737  0.07817636     0.37200
H48         H  0.45984233  0.63653821  0.07818097     0.33600
H49         H  0.37199091  0.60834235  0.45728130     0.25400
H50         H  0.50816902  0.61642626  0.03302281     0.31400
H51         H  0.50742776  0.57820433  0.09065847     0.37300
H52         H  0.35394407  0.59256442  0.96440562     0.31700
H53         H  0.34790820  0.57396318  0.04356698     0.30600
H54         H  0.40246226  0.54721627  0.12446408     0.32300
H55         H  0.46700219  0.56687392  0.14968013     0.31300
H56         H  0.37573732  0.54482103  0.49346759     0.35300
H57         H  0.46311379  0.52248919  0.97562305     0.28000
H58         H  0.41325883  0.67571133  0.10672804     0.32200
H59         H  0.45187957  0.61974841  0.14071185     0.35100
H60         H  0.34826560  0.55237083  0.06492311     0.27700
H61         H  0.43599966  0.52332192  0.97043304     0.40600
H62         H  0.45375514  0.64309085  0.95719766     0.30600
H63         H  0.40705426  0.64239002  0.95209009     0.38200
H64         H  0.44245786  0.55841020  0.13966844     0.30100
H65         H  0.50656366  0.64142072  0.01952769     0.30200
H66         H  0.43277249  0.65821717  0.11688360     0.30400
Zr67       Zr  0.42382857  0.82528818  0.98585014     2.17500
O68         O  0.44375318  0.79998056  0.44766321    -0.51900
O69         O  0.39019598  0.80108820  0.99654293    -0.75100
O70         O  0.44133528  0.78736027  0.99571940    -0.81900
O71         O  0.37528682  0.86252562  0.96038124    -0.83700
O72         O  0.46073089  0.79298773  0.03991244    -0.79300
O73         O  0.39540168  0.82983809  0.94709282    -0.90900
O74         O  0.39487378  0.79835743  0.04685453    -0.76900
O75         O  0.43055231  0.81852288  0.03827294    -0.86400
O76         O  0.39270579  0.84463726  0.01274849    -0.86100
O77         O  0.46119283  0.84237940  0.99527442    -0.72800
O78         O  0.42685235  0.86587145  0.97245882    -0.85000
Zr79       Zr  0.43916939  0.89414551  0.06532161     2.26400
Zr80       Zr  0.46736005  0.83479021  0.04818003     2.06300
Zr81       Zr  0.39561808  0.88446652  0.99989656     2.10000
Zr82       Zr  0.40002593  0.83740782  0.06514775     1.78800
O83         O  0.40425543  0.91106912  0.47233506    -0.93800
O84         O  0.40760731  0.81416688  0.11026175    -0.41600
O85         O  0.40330001  0.87684578  0.05220872    -0.78200
O86         O  0.43652234  0.85352382  0.07734244    -0.96900
O87         O  0.47062977  0.87581864  0.03881524    -0.90200
O88         O  0.43137993  0.90224925  0.01298187    -0.93000
C89         C  0.38370841  0.79380497  0.02266960     1.00700
C90         C  0.37812079  0.84376226  0.94457897     1.13600
C91         C  0.45184777  0.77965235  0.01938608     1.04400
O92         O  0.49541566  0.80978124  0.07392051    -0.95200
O93         O  0.47776433  0.84513786  0.09971921    -0.90900
O94         O  0.46291006  0.88134226  0.10852949    -0.84100
C95         C  0.47386576  0.86286167  0.11691708     1.11100
O96         O  0.48898792  0.86471485  0.44864264    -0.97200
Zr97       Zr  0.46308138  0.88412774  0.98653142     1.88900
O98         O  0.45854764  0.92945325  0.04835667    -0.73800
O99         O  0.50462943  0.83808429  0.02221159    -0.53100
O100        O  0.50843723  0.87595729  0.50367697    -0.97800
O101        O  0.46021000  0.89800381  0.44695217    -0.55000
O102        O  0.47064175  0.92535425  0.99957125    -0.74300
C103        C  0.46711766  0.93787386  0.02379435     0.98000
O104        O  0.43833787  0.92206245  0.10761846    -0.63200
O105        O  0.35551469  0.89778932  0.99386418    -0.58000
O106        O  0.40127261  0.91054803  0.07864460    -0.94600
O107        O  0.37588592  0.90778890  0.03924767    -0.93100
O108        O  0.35797322  0.84223005  0.06357325    -0.93400
O109        O  0.38235717  0.84885074  0.11368492    -0.92200
C110        C  0.38129822  0.91410148  0.06645738     1.16800
H111        H  0.37733635  0.83948945  0.00757040     0.32800
H112        H  0.43651775  0.85047284  0.09885945     0.43600
H113        H  0.42930316  0.91857873  0.00906725     0.37200
H114        H  0.47267191  0.83423874  0.98300711     0.33600
H115        H  0.39880484  0.79969918  0.10714192     0.25400
H116        H  0.51536272  0.84384130  0.03807050     0.31400
H117        H  0.51407768  0.89091244  0.49583205     0.37300
H118        H  0.35540976  0.85791399  0.05502776     0.31700
H119        H  0.35322055  0.90008159  0.97173304     0.30600
H120        H  0.39672075  0.90612828  0.45312491     0.32300
H121        H  0.45139416  0.91209961  0.45342021     0.31300
H122        H  0.39413818  0.85852963  0.12392545     0.35300
H123        H  0.45458884  0.92376433  0.11443912     0.28000
H124        H  0.44792032  0.81295130  0.43414469     0.32200
H125        H  0.48488753  0.84829770  0.44490361     0.35100
H126        H  0.34594002  0.88419026  0.99894164     0.27700
H127        H  0.43041317  0.91413241  0.12455223     0.40600
H128        H  0.48634953  0.80107002  0.08912034     0.30600
H129        H  0.42410433  0.80932145  0.10838621     0.38200
H130        H  0.44886123  0.88867738  0.43538243     0.30100
H131        H  0.50979096  0.82188104  0.01805083     0.30200
H132        H  0.43101101  0.79195433  0.43700083     0.30400
Zr133      Zr  0.05631262  0.83351249  0.28856154     2.17500
O134        O  0.06950680  0.81079142  0.33195640    -0.51900
O135        O  0.07652672  0.81144280  0.24642112    -0.75100
O136        O  0.03490759  0.79749212  0.29428985    -0.81900
O137        O  0.11111792  0.86707741  0.27952249    -0.83700
O138        O  0.99663201  0.80604202  0.28924636    -0.79300
O139        O  0.09710801  0.83269489  0.29597436    -0.90900
O140        O  0.06405508  0.82480260  0.20070632    -0.76900
O141        O  0.02463862  0.83155722  0.25445252    -0.86400
O142        O  0.06803236  0.85651609  0.24683649    -0.86100
O143        O  0.02533294  0.85241986  0.31791185    -0.72800
O144        O  0.06370667  0.87173872  0.31094972    -0.85000
Zr145      Zr  0.01217938  0.90986877  0.25701775     2.26400
Zr146      Zr  0.99329778  0.84828899  0.28340186     2.06300
Zr147      Zr  0.07785460  0.89276622  0.26833834     2.10000
Zr148      Zr  0.03579149  0.85498926  0.21270825     1.78800
O149        O  0.10066157  0.91232396  0.30728861    -0.93800
O150        O  0.01130250  0.82389612  0.19392721    -0.41600
O151        O  0.04543985  0.89213580  0.23273487    -0.78200
O152        O  0.00252188  0.87143722  0.23860154    -0.96900
O153        O  0.00099751  0.88781261  0.29978731    -0.90200
O154        O  0.04455088  0.91285477  0.29104722    -0.93000
C155        C  0.07758811  0.81215632  0.21686073     1.00700
C156        C  0.11366397  0.84624262  0.28945066     1.13600
C157        C  0.01353712  0.79155434  0.29297680     1.04400
O158        O  0.96145226  0.82744146  0.25986432    -0.95200
O159        O  0.95739008  0.86797661  0.27099202    -0.90900
O160        O  0.98011925  0.89499371  0.28643827    -0.84100
C161        C  0.96097020  0.88941224  0.27433950     1.11100
O162        O  0.03843941  0.87589498  0.38355424    -0.97200
Zr163      Zr  0.03112250  0.89336337  0.33417367     1.88900
O164        O  0.00688639  0.94563328  0.28455022    -0.73800
O165        O  0.97602039  0.84510406  0.33394533    -0.53100
O166        O  0.99764537  0.89448325  0.36836799    -0.97800
O167        O  0.06118332  0.91374960  0.36219079    -0.55000
O168        O  0.01524071  0.93583312  0.33337459    -0.74300
C169        C  0.00793930  0.95083964  0.31299166     0.98000
O170        O  0.98860623  0.92942358  0.21917863    -0.63200
O171        O  0.10534495  0.89717489  0.22638373    -0.58000
O172        O  0.04801001  0.91844145  0.23143074    -0.94600
O173        O  0.07945194  0.93194447  0.25093009    -0.93100
O174        O  0.05727790  0.86706084  0.16781333    -0.93400
O175        O  0.01458986  0.87253105  0.17062820    -0.92200
C176        C  0.06020792  0.93594106  0.23827022     1.16800
H177        H  0.08242227  0.85177663  0.23708317     0.32800
H178        H  0.99002302  0.87210779  0.22537561     0.43600
H179        H  0.04847592  0.92861546  0.29635104     0.37200
H180        H  0.02253788  0.84326043  0.33583437     0.33600
H181        H  0.99527243  0.83010241  0.19637308     0.25400
H182        H  0.95917973  0.84367017  0.33012385     0.31400
H183        H  0.98414063  0.89067918  0.35546330     0.37300
H184        H  0.06788720  0.87917376  0.17542232     0.31700
H185        H  0.11153766  0.88135345  0.22203939     0.30600
H186        H  0.11003244  0.92373046  0.29606312     0.32300
H187        H  0.06267493  0.92882471  0.35176581     0.31300
H188        H  0.01647262  0.88947791  0.17352757     0.35300
H189        H  0.99371691  0.94572273  0.21936952     0.28000
H190        H  0.07371923  0.79526574  0.32343607     0.32200
H191        H  0.05019179  0.86356743  0.37927930     0.35100
H192        H  0.09566217  0.90084396  0.20844299     0.27700
H193        H  0.99389253  0.92277119  0.19938653     0.40600
H194        H  0.96629903  0.82516506  0.23834396     0.30600
H195        H  0.01395369  0.82352862  0.17162258     0.38200
H196        H  0.07572780  0.90517556  0.35722095     0.30100
H197        H  0.98093333  0.82958721  0.34119936     0.30200
H198        H  0.05552208  0.80822901  0.34457725     0.30400
Zr199      Zr  0.05127803  0.65349340  0.25944540     2.17500
O200        O  0.04427446  0.67554614  0.21316928    -0.51900
O201        O  0.07590954  0.67953442  0.29078757    -0.75100
O202        O  0.02737859  0.68708773  0.27113039    -0.81900
O203        O  0.10541007  0.62387648  0.23283597    -0.83700
O204        O  0.00106902  0.67610636  0.30678192    -0.79300
O205        O  0.08620667  0.65850812  0.23020742    -0.90900
O206        O  0.07996787  0.66357630  0.33749872    -0.76900
O207        O  0.04133111  0.64934583  0.31144721    -0.86400
O208        O  0.08017792  0.62891923  0.28087941    -0.86100
O209        O  0.01345458  0.63579836  0.25804849    -0.72800
O210        O  0.04879085  0.61786716  0.22964263    -0.85000
Zr211      Zr  0.03187177  0.57143301  0.30615033     2.26400
Zr212      Zr  0.00374487  0.63315197  0.31088237     2.06300
Zr213      Zr  0.07859955  0.59407729  0.25080710     2.10000
Zr214      Zr  0.06979913  0.62398449  0.33251895     1.78800
O215        O  0.07081063  0.57722888  0.20076391    -0.93800
O216        O  0.05861216  0.63416552  0.38474781    -0.41600
O217        O  0.06907115  0.58907220  0.30363939    -0.78200
O218        O  0.03243549  0.60809264  0.33405042    -0.96900
O219        O  0.00215383  0.59575112  0.28526540    -0.90200
O220        O  0.04202959  0.57425930  0.25352134    -0.93000
C221        C  0.08334413  0.67981331  0.31861894     1.00700
C222        C  0.10434932  0.64567505  0.22687721     1.13600
C223        C  0.01132813  0.69159253  0.29061801     1.04400
O224        O  0.99921624  0.64733611  0.36313466    -0.95200
O225        O  0.98199776  0.60246399  0.33434917    -0.90900
O226        O  0.00627956  0.57471242  0.35000777    -0.84100
C227        C  0.99045834  0.59004493  0.35555101     1.11100
O228        O  0.00107448  0.61966697  0.18783918    -0.97200
Zr229      Zr  0.01182611  0.59779749  0.23296420     1.88900
O230        O  0.00936042  0.54222518  0.28002321    -0.73800
O231        O  0.96387211  0.64376165  0.29820654    -0.53100
O232        O  0.97009645  0.60488258  0.23119941    -0.97800
O233        O  0.02180810  0.57763270  0.18535133    -0.55000
O234        O  0.99447796  0.55809768  0.23719775    -0.74300
C235        C  0.99683179  0.54105516  0.25608890     0.98000
O236        O  0.02922850  0.53881470  0.34099391    -0.63200
O237        O  0.11593345  0.57785614  0.23364725    -0.58000
O238        O  0.06841744  0.54962947  0.31007949    -0.94600
O239        O  0.09598607  0.56158949  0.27679201    -0.93100
O240        O  0.11195385  0.62612243  0.33502594    -0.93400
O241        O  0.08523020  0.59548300  0.36797457    -0.92200
C242        C  0.08882169  0.54846449  0.29804687     1.16800
H243        H  0.09521228  0.63609227  0.28180805     0.32800
H244        H  0.02987990  0.60683533  0.35567983     0.43600
H245        H  0.04308841  0.55911632  0.24385994     0.37200
H246        H  0.00260709  0.64625708  0.24822192     0.33600
H247        H  0.06992039  0.64594717  0.39139598     0.25400
H248        H  0.96473177  0.64997463  0.27728556     0.31400
H249        H  0.96347697  0.59416054  0.24633454     0.37300
H250        H  0.11762816  0.61171911  0.32476953     0.31700
H251        H  0.11794696  0.58288882  0.21229591     0.30600
H252        H  0.08017647  0.58635628  0.18635274     0.32300
H253        H  0.00681992  0.57523358  0.17491320     0.31300
H254        H  0.07138745  0.58866406  0.37765727     0.35300
H255        H  0.03349324  0.52484002  0.32876029     0.28000
H256        H  0.04933525  0.69152428  0.21798035     0.32200
H257        H  0.01057211  0.63384672  0.18900661     0.35100
H258        H  0.12790829  0.58638655  0.24524615     0.27700
H259        H  0.04208560  0.54072376  0.35570442     0.40600
H260        H  0.00756391  0.66222806  0.36383272     0.30600
H261        H  0.04380688  0.64292277  0.38282124     0.38200
H262        H  0.02675221  0.56182651  0.19146132     0.30100
H263        H  0.95581570  0.62878732  0.29578949     0.30200
H264        H  0.02716118  0.67675935  0.21148360     0.30400
Zr265      Zr  0.26577014  0.75030684  0.44249208     2.17500
O266        O  0.27880539  0.78041429  0.98128424    -0.51900
O267        O  0.29104476  0.72751653  0.96138503    -0.75100
O268        O  0.24565359  0.74868713  0.99104249    -0.81900
O269        O  0.30661958  0.77607093  0.38189308    -0.83700
O270        O  0.20724391  0.74062421  0.98753308    -0.79300
O271        O  0.29745006  0.77688548  0.43244650    -0.90900
O272        O  0.28061834  0.68700457  0.43926685    -0.76900
O273        O  0.23920878  0.71921598  0.43829181    -0.86400
O274        O  0.28050260  0.72791005  0.40027688    -0.86100
O275        O  0.22776657  0.76745360  0.43716715    -0.72800
O276        O  0.26471905  0.77507052  0.39939386    -0.85000
Zr277      Zr  0.21504861  0.73981762  0.34711664     2.26400
Zr278      Zr  0.20112886  0.73590347  0.43013994     2.06300
Zr279      Zr  0.27796268  0.75244287  0.35620932     2.10000
Zr280      Zr  0.25404040  0.69665373  0.39700262     1.78800
O281        O  0.29921477  0.77909925  0.32400557    -0.93800
O282        O  0.23708383  0.66461760  0.42481448    -0.41600
O283        O  0.25199342  0.72086961  0.35253374    -0.78200
O284        O  0.21562359  0.71282308  0.38840783    -0.96900
O285        O  0.20079335  0.76214057  0.38879283    -0.90200
O286        O  0.24103069  0.77104072  0.35057418    -0.93000
C287        C  0.29291189  0.69866846  0.45844484     1.00700
C288        C  0.30947988  0.78342252  0.40935610     1.13600
C289        C  0.22593656  0.74376611  0.00283136     1.04400
O290        O  0.18192088  0.70247812  0.45182956    -0.95200
O291        O  0.16553852  0.72692437  0.40010127    -0.90900
O292        O  0.17502034  0.73220946  0.35069195    -0.84100
C293        C  0.16045380  0.72715375  0.37134121     1.11100
O294        O  0.23818657  0.82020769  0.43427563    -0.97200
Zr295      Zr  0.22772102  0.79274316  0.39409884     1.88900
O296        O  0.19372850  0.77274623  0.32600004    -0.73800
O297        O  0.17420765  0.76451670  0.45205715    -0.53100
O298        O  0.19412084  0.81399657  0.41435383    -0.97800
O299        O  0.25026637  0.82378460  0.37173598    -0.55000
O300        O  0.20328774  0.80483741  0.35289524    -0.74300
C301        C  0.19203348  0.79462659  0.33168719     0.98000
O302        O  0.20394073  0.70806926  0.31340000    -0.63200
O303        O  0.30866573  0.72406736  0.34511902    -0.58000
O304        O  0.23050180  0.74319945  0.29735945    -0.94600
O305        O  0.26935751  0.74827100  0.30086987    -0.93100
O306        O  0.28592820  0.67758947  0.36942760    -0.93400
O307        O  0.24119418  0.66568251  0.36299265    -0.92200
C308        C  0.25052040  0.74553877  0.28546298     1.16800
H309        H  0.29635062  0.72273752  0.40338742     0.32800
H310        H  0.20506760  0.70034993  0.38418339     0.43600
H311        H  0.24078581  0.78043537  0.33248021     0.37200
H312        H  0.22055051  0.78025551  0.95363629     0.33600
H313        H  0.23635113  0.67007178  0.44630080     0.25400
H314        H  0.16287365  0.77069779  0.93665352     0.31400
H315        H  0.19463767  0.82937731  0.40450361     0.37300
H316        H  0.30020669  0.68317269  0.37939037     0.31700
H317        H  0.30547075  0.71864739  0.32404652     0.30600
H318        H  0.30966437  0.76910698  0.31136584     0.32300
H319        H  0.24983185  0.82074639  0.34946740     0.31300
H320        H  0.24403433  0.67154175  0.34217312     0.35300
H321        H  0.21873759  0.69991707  0.30836382     0.28000
H322        H  0.28452894  0.76995781  0.99748444     0.32200
H323        H  0.24689952  0.81088157  0.44935722     0.35100
H324        H  0.32292598  0.73333676  0.34329787     0.27700
H325        H  0.19570870  0.69702964  0.32661634     0.40600
H326        H  0.18589407  0.68942968  0.43779683     0.30600
H327        H  0.22067848  0.66427553  0.41826573     0.38200
H328        H  0.26651634  0.82026422  0.37749873     0.30100
H329        H  0.15718989  0.75160902  0.96057886     0.30200
H330        H  0.26515673  0.78861791  0.99023429     0.30400
Zr331      Zr  0.26241741  0.72344391  0.09623474     2.17500
O332        O  0.27333350  0.69380093  0.05843261    -0.51900
O333        O  0.29258089  0.74608894  0.07433470    -0.75100
O334        O  0.24473918  0.73256811  0.04744321    -0.81900
O335        O  0.29709223  0.69640098  0.16133125    -0.83700
O336        O  0.20780231  0.74686595  0.05186150    -0.79300
O337        O  0.28967945  0.69236019  0.11063871    -0.90900
O338        O  0.28797940  0.78297502  0.09218327    -0.76900
O339        O  0.24009922  0.75838304  0.09540875    -0.86400
O340        O  0.28004185  0.74784492  0.13396686    -0.86100
O341        O  0.22254700  0.71335503  0.10468124    -0.72800
O342        O  0.25906142  0.70474476  0.14385391    -0.85000
Zr343      Zr  0.21361005  0.75150556  0.19037242     2.26400
Zr344      Zr  0.20040237  0.74940212  0.10679241     2.06300
Zr345      Zr  0.27514540  0.72934272  0.18216723     2.10000
Zr346      Zr  0.25760529  0.78276716  0.13199898     1.78800
O347        O  0.29384827  0.70580588  0.22110766    -0.93800
O348        O  0.24315864  0.80988877  0.09397998    -0.41600
O349        O  0.25252039  0.76428941  0.18069927    -0.78200
O350        O  0.21774533  0.77369752  0.14462480    -0.96900
O351        O  0.19762836  0.72730281  0.15194830    -0.90200
O352        O  0.23653916  0.71699620  0.19160893    -0.93000
C353        C  0.29820536  0.76744396  0.07528410     1.00700
C354        C  0.29977356  0.68597709  0.13546558     1.13600
C355        C  0.22582560  0.74076363  0.03614611     1.04400
O356        O  0.18723118  0.78661649  0.08697191    -0.95200
O357        O  0.16520096  0.76272339  0.13639247    -0.90900
O358        O  0.17468618  0.76620337  0.18655004    -0.84100
C359        C  0.16018671  0.76766327  0.16467138     1.11100
O360        O  0.22972372  0.66190760  0.11524360    -0.97200
Zr361      Zr  0.22093563  0.69287296  0.15195363     1.88900
O362        O  0.18477187  0.72288191  0.20650210    -0.73800
O363        O  0.16924658  0.72745063  0.08334751    -0.53100
O364        O  0.18389386  0.67556547  0.13917711    -0.97800
O365        O  0.23994160  0.65892643  0.17379082    -0.55000
O366        O  0.20166356  0.68776530  0.19938759    -0.74300
C367        C  0.18482107  0.70059056  0.20811500     0.98000
O368        O  0.20640330  0.78697534  0.22004861    -0.63200
O369        O  0.31066591  0.75183759  0.18406945    -0.58000
O370        O  0.22998384  0.74804675  0.24029334    -0.94600
O371        O  0.26858677  0.74007235  0.23619048    -0.93100
O372        O  0.29073809  0.79994724  0.15763542    -0.93400
O373        O  0.24933122  0.82120155  0.15348677    -0.92200
C374        C  0.25016315  0.74483961  0.25183538     1.16800
H375        H  0.29639731  0.75012575  0.13037989     0.32800
H376        H  0.20879958  0.78796697  0.14655092     0.43600
H377        H  0.23601157  0.70951316  0.21118424     0.37200
H378        H  0.21708175  0.70364595  0.08818392     0.33600
H379        H  0.25576636  0.82119953  0.09137019     0.25400
H380        H  0.16059573  0.72090479  0.10072345     0.31400
H381        H  0.18382690  0.66076448  0.15047238     0.37300
H382        H  0.28744968  0.79828449  0.17967281     0.31700
H383        H  0.31009007  0.75991764  0.20410087     0.30600
H384        H  0.30697961  0.71516216  0.22864516     0.32300
H385        H  0.22706541  0.64874871  0.17995311     0.31300
H386        H  0.23505054  0.81932342  0.16577458     0.35300
H387        H  0.22179965  0.79145163  0.22795163     0.28000
H388        H  0.27681175  0.70222567  0.03940048     0.32200
H389        H  0.24617529  0.66428715  0.10953068     0.35100
H390        H  0.32329209  0.74011391  0.18604212     0.27700
H391        H  0.20283004  0.79897952  0.20468093     0.40600
H392        H  0.17198173  0.78337157  0.07763844     0.30600
H393        H  0.24311172  0.80095496  0.07453788     0.38200
H394        H  0.24656707  0.66458692  0.19324644     0.30100
H395        H  0.15863723  0.73942487  0.07494162     0.30200
H396        H  0.25887602  0.68532962  0.05412644     0.30400
Zr397      Zr  0.53900750  0.94187146  0.19122398     2.17500
O398        O  0.50488366  0.93998782  0.15844653    -0.51900
O399        O  0.50749304  0.96560909  0.21315940    -0.75100
O400        O  0.51713870  0.90683740  0.19962759    -0.81900
O401        O  0.57603000  0.97721686  0.13658256    -0.83700
O402        O  0.53414153  0.88287452  0.23414669    -0.79300
O403        O  0.54682179  0.95112213  0.13726141    -0.90900
O404        O  0.51787108  0.97288648  0.26191077    -0.76900
O405        O  0.54402871  0.93446869  0.24427122    -0.86400
O406        O  0.55672973  0.97665568  0.20953049    -0.86100
O407        O  0.56149393  0.90633188  0.19552426    -0.72800
O408        O  0.57588586  0.94471898  0.17319528    -0.85000
Zr409      Zr  0.62385215  0.93697799  0.23778497     2.26400
Zr410      Zr  0.57000057  0.90142692  0.24913201     2.06300
Zr411      Zr  0.59459455  0.97841618  0.18545472     2.10000
Zr412      Zr  0.56157339  0.96894601  0.26250142     1.78800
O413        O  0.60657411  0.00540135  0.14607844    -0.93800
O414        O  0.55035237  0.95830050  0.31408732    -0.41600
O415        O  0.59988062  0.97197990  0.23831437    -0.78200
O416        O  0.58826452  0.93582739  0.26765858    -0.96900
O417        O  0.60445895  0.90355536  0.21933221    -0.90200
O418        O  0.61701981  0.94359240  0.18527845    -0.93000
C419        C  0.50228499  0.97157338  0.24067181     1.00700
C420        C  0.56121001  0.96427008  0.12325194     1.13600
C421        C  0.51827081  0.88797190  0.21492018     1.04400
O422        O  0.55907431  0.90619230  0.30259882    -0.95200
O423        O  0.60545968  0.87857888  0.26156570    -0.90900
O424        O  0.63555978  0.90338866  0.26614491    -0.84100
C425        C  0.62666140  0.88329087  0.26844276     1.11100
O426        O  0.57251041  0.89654544  0.12562643    -0.97200
Zr427      Zr  0.59618605  0.91077675  0.16759386     1.88900
O428        O  0.65449432  0.91697478  0.20671238    -0.73800
O429        O  0.56685056  0.86144612  0.26647773    -0.53100
O430        O  0.59684744  0.86842893  0.17022066    -0.97800
O431        O  0.60829062  0.91939295  0.11574309    -0.55000
O432        O  0.63626937  0.90119879  0.16589700    -0.74300
C433        C  0.65443676  0.90519775  0.18141006     0.98000
O434        O  0.64438008  0.94832932  0.28404263    -0.63200
O435        O  0.58529962  0.01650588  0.20729540    -0.58000
O436        O  0.65290709  0.96469217  0.22473983    -0.94600
O437        O  0.63760902  0.98403374  0.18468310    -0.93100
O438        O  0.55515026  0.01077559  0.26046709    -0.93400
O439        O  0.58056520  0.99060573  0.30316145    -0.92200
C440        C  0.65491070  0.97773725  0.20155788     1.16800
H441        H  0.54717968  0.99020156  0.20573405     0.32800
H442        H  0.59238351  0.93417307  0.28886609     0.43600
H443        H  0.63078101  0.94486342  0.17294442     0.37200
H444        H  0.55478986  0.89300874  0.18573348     0.33600
H445        H  0.54134239  0.97183836  0.32202840     0.25400
H446        H  0.55216896  0.86066281  0.27817876     0.31400
H447        H  0.60778789  0.86445362  0.18678232     0.37300
H448        H  0.54096660  0.01371658  0.27281138     0.31700
H449        H  0.59936019  0.02583721  0.20391263     0.30600
H450        H  0.61782734  0.99664770  0.13303951     0.32300
H451        H  0.61652336  0.90513814  0.10849171     0.31300
H452        H  0.59671089  0.98449197  0.30318098     0.35300
H453        H  0.66079488  0.94384607  0.28021762     0.28000
H454        H  0.50311422  0.95544940  0.14905072     0.32200
H455        H  0.55693998  0.90353649  0.12916135     0.35100
H456        H  0.57348404  0.02325565  0.19351752     0.27700
H457        H  0.64422923  0.96553306  0.28409754     0.40600
H458        H  0.57285676  0.90071420  0.31403475     0.30600
H459        H  0.53858782  0.94612591  0.31123893     0.38200
H460        H  0.62072556  0.93092393  0.11821940     0.30100
H461        H  0.56438317  0.85184376  0.24792003     0.30200
H462        H  0.50887260  0.92911536  0.14150935     0.30400
Zr463      Zr  0.87345425  0.99930455  0.20428781     2.17500
O464        O  0.89137373  0.02673650  0.23950513    -0.51900
O465        O  0.90170361  0.00541308  0.16418154    -0.75100
O466        O  0.90940796  0.98223694  0.22320747    -0.81900
O467        O  0.82329265  0.04398814  0.18410303    -0.83700
O468        O  0.89863841  0.95342203  0.19441557    -0.79300
O469        O  0.86145861  0.03926751  0.19641432    -0.90900
O470        O  0.89308426  0.97900638  0.12722363    -0.76900
O471        O  0.87625147  0.96277935  0.17792421    -0.86400
O472        O  0.84689740  0.00098684  0.16274567    -0.86100
O473        O  0.86430785  0.96964992  0.24134860    -0.72800
O474        O  0.83567526  0.00512194  0.22641784    -0.85000
Zr475      Zr  0.80128038  0.94250415  0.19742111     2.26400
Zr476      Zr  0.86512501  0.93338794  0.21296444     2.06300
Zr477      Zr  0.80857900  0.00545548  0.18470805     2.10000
Zr478      Zr  0.85163119  0.96503866  0.13641047     1.78800
O479        O  0.78633090  0.03571997  0.21144817    -0.93800
O480        O  0.87049295  0.93130312  0.11247169    -0.41600
O481        O  0.81258792  0.96933508  0.15823352    -0.78200
O482        O  0.83819342  0.93508446  0.17150216    -0.96900
O483        O  0.82901567  0.94101389  0.23651167    -0.90200
O484        O  0.79905290  0.97854837  0.22379136    -0.93000
C485        C  0.90684097  0.99436972  0.13946790     1.00700
C486        C  0.84337851  0.05173308  0.19024497     1.13600
C487        C  0.91278915  0.96151480  0.21370963     1.04400
O488        O  0.88779533  0.90047219  0.19344231    -0.95200
O489        O  0.84442065  0.89716939  0.22264425    -0.90900
O490        O  0.80697403  0.90240445  0.20799344    -0.84100
C491        C  0.82349675  0.89010397  0.21894840     1.11100
O492        O  0.84083160  0.00848889  0.29509317    -0.97200
Zr493      Zr  0.82681186  0.97637743  0.26377082     1.88900
O494        O  0.78706596  0.92585815  0.24617128    -0.73800
O495        O  0.88446132  0.92362989  0.26039223    -0.53100
O496        O  0.84739283  0.96236294  0.30858812    -0.97800
O497        O  0.79322339  0.99596548  0.28693477    -0.55000
O498        O  0.80695025  0.94273859  0.28496836    -0.74300
C499        C  0.79343222  0.92695678  0.27446371     0.98000
O500        O  0.77835601  0.92188586  0.15950084    -0.63200
O501        O  0.79932929  0.01638211  0.13253033    -0.58000
O502        O  0.76221866  0.95917847  0.19281183    -0.94600
O503        O  0.76690184  0.99736144  0.18211510    -0.93100
O504        O  0.84621158  0.99276492  0.09534741    -0.93400
O505        O  0.83063235  0.95151320  0.09165155    -0.92200
C506        C  0.75417957  0.97960068  0.18704160     1.16800
H507        H  0.85044954  0.01363670  0.14929462     0.32800
H508        H  0.83771655  0.92019185  0.16119960     0.43600
H509        H  0.78397123  0.98161922  0.23266626     0.37200
H510        H  0.87589651  0.96943558  0.25723590     0.33600
H511        H  0.88345352  0.92731968  0.12626667     0.25400
H512        H  0.87186995  0.92376686  0.27582313     0.31400
H513        H  0.86269470  0.96995341  0.30848112     0.37300
H514        H  0.86170875  0.99952434  0.09194801     0.31700
H515        H  0.78228125  0.01515884  0.13086513     0.30600
H516        H  0.77444485  0.04102632  0.19676633     0.32300
H517        H  0.79517107  0.01260525  0.28213796     0.31300
H518        H  0.81860562  0.94115112  0.09983971     0.35300
H519        H  0.77988021  0.93126277  0.14081327     0.28000
H520        H  0.90612336  0.03108407  0.22957075     0.32200
H521        H  0.85355831  0.01530332  0.28303784     0.35100
H522        H  0.80230489  0.03325448  0.13160127     0.27700
H523        H  0.78724488  0.90745202  0.15483992     0.40600
H524        H  0.88545787  0.90080853  0.17109738     0.30600
H525        H  0.85946730  0.91838283  0.11462968     0.38200
H526        H  0.79588657  0.99501691  0.30916982     0.30100
H527        H  0.88891262  0.90705638  0.25799731     0.30200
H528        H  0.89610497  0.01747077  0.25738004     0.30400
Zr529      Zr  0.60804949  0.52324986  0.48718533     2.17500
O530        O  0.58589119  0.51736276  0.53397145    -0.51900
O531        O  0.58416099  0.49706609  0.45694188    -0.75100
O532        O  0.57100339  0.54206597  0.48302000    -0.81900
O533        O  0.65656716  0.48754031  0.52349446    -0.83700
O534        O  0.57389624  0.56605637  0.44275286    -0.79300
O535        O  0.61731207  0.49224637  0.52132822    -0.90900
O536        O  0.59285701  0.50442005  0.40787474    -0.76900
O537        O  0.60648013  0.53789247  0.43697582    -0.86400
O538        O  0.63722991  0.50187570  0.46017295    -0.86100
O539        O  0.61295150  0.56445899  0.49199704    -0.72800
O540        O  0.64344417  0.53117069  0.51336236    -0.85000
Zr541      Zr  0.67973066  0.56648017  0.44317672     2.26400
Zr542      Zr  0.61450933  0.57829168  0.44042835     2.06300
Zr543      Zr  0.67338059  0.51132489  0.48444683     2.10000
Zr544      Zr  0.63489266  0.51688726  0.40990877     1.78800
O545        O  0.69734899  0.48607344  0.51603879    -0.93800
O546        O  0.62253151  0.53233037  0.36099263    -0.41600
O547        O  0.67217650  0.52588739  0.43386594    -0.78200
O548        O  0.64506749  0.55744716  0.41414047    -0.96900
O549        O  0.64882945  0.58668155  0.46831781    -0.90200
O550        O  0.67900164  0.55193528  0.49349839    -0.93000
C551        C  0.57872332  0.49677840  0.42856722     1.00700
C552        C  0.63586565  0.48298718  0.53192815     1.13600
C553        C  0.56203863  0.55362622  0.46132425     1.04400
O554        O  0.59758665  0.58763418  0.39123534    -0.95200
O555        O  0.63567774  0.60985132  0.41525838    -0.90900
O556        O  0.67311760  0.59756308  0.40903830    -0.84100
C557        C  0.65658553  0.61212543  0.40508002     1.11100
O558        O  0.61633310  0.58575177  0.04734464    -0.97200
Zr559      Zr  0.64806090  0.57218106  0.51857584     1.88900
O560        O  0.69197625  0.60285331  0.46894457    -0.73800
O561        O  0.59479033  0.61147782  0.46426959    -0.53100
O562        O  0.62168332  0.60287801  0.53640323    -0.97800
O563        O  0.66125578  0.57944078  0.06208160    -0.55000
O564        O  0.67008436  0.60717897  0.51184082    -0.74300
C565        C  0.68513549  0.61448523  0.49278267     0.98000
O566        O  0.70841667  0.56559517  0.40213196    -0.63200
O567        O  0.68155449  0.48097852  0.44657835    -0.58000
O568        O  0.71876058  0.55427038  0.45873966    -0.94600
O569        O  0.71485716  0.52155745  0.48639255    -0.93100
O570        O  0.64020746  0.47504457  0.40369650    -0.93400
O571        O  0.65899403  0.50522227  0.36641749    -0.92200
C572        C  0.72718131  0.53812149  0.47565651     1.16800
H573        H  0.63418961  0.48543252  0.46079295     0.32800
H574        H  0.64663081  0.56348032  0.39369086     0.43600
H575        H  0.69275033  0.55532597  0.50496516     0.37200
H576        H  0.60001497  0.57149702  0.50284906     0.33600
H577        H  0.61663872  0.51879310  0.34944886     0.25400
H578        H  0.60454554  0.61545715  0.48204441     0.31400
H579        H  0.64050806  0.62908894  0.01881644     0.37300
H580        H  0.62725022  0.47014000  0.39047293     0.31700
H581        H  0.69859266  0.47856960  0.44712558     0.30600
H582        H  0.70685376  0.47658029  0.50160167     0.32300
H583        H  0.66407971  0.59586984  0.06760828     0.31300
H584        H  0.67497869  0.50933640  0.37239823     0.35300
H585        H  0.69930354  0.56581033  0.38303441     0.28000
H586        H  0.57389866  0.50589563  0.52860823     0.32200
H587        H  0.61570258  0.57086157  0.05840113     0.35100
H588        H  0.67512846  0.46670787  0.45550445     0.27700
H589        H  0.71595831  0.58094131  0.40308942     0.40600
H590        H  0.58765445  0.60149210  0.39535021     0.30600
H591        H  0.60845768  0.54172681  0.36590847     0.38200
H592        H  0.67692232  0.57220396  0.06084540     0.30100
H593        H  0.59713098  0.62438621  0.44993271     0.30200
H594        H  0.57299044  0.55753049  0.01645810     0.30400
Zr595      Zr  0.94392544  0.55703973  0.48209928     2.17500
O596        O  0.97019824  0.55586478  0.43864361    -0.51900
O597        O  0.97237353  0.53246849  0.50628138    -0.75100
O598        O  0.97209879  0.58704783  0.49379787    -0.81900
O599        O  0.91199445  0.50624147  0.47517148    -0.83700
O600        O  0.95959295  0.62336372  0.49169736    -0.79300
O601        O  0.93387105  0.52746879  0.44486608    -0.90900
O602        O  0.97152925  0.53829230  0.05888052    -0.76900
O603        O  0.94480692  0.57882847  0.52874528    -0.86400
O604        O  0.92268483  0.53380370  0.51718233    -0.86100
O605        O  0.92555589  0.59403012  0.47276406    -0.72800
O606        O  0.90525005  0.55376258  0.46210996    -0.85000
Zr607      Zr  0.86567110  0.58866087  0.53134052     2.26400
Zr608      Zr  0.92495419  0.61529703  0.52095670     2.06300
Zr609      Zr  0.88325587  0.53162214  0.49801464     2.10000
Zr610      Zr  0.92998925  0.55245378  0.06963229     1.78800
O611        O  0.86422082  0.51235066  0.45538589    -0.93800
O612        O  0.95522379  0.57177346  0.10630457    -0.41600
O613        O  0.88471963  0.55256380  0.54510886    -0.78200
O614        O  0.90788825  0.58865723  0.06560953    -0.96900
O615        O  0.88781599  0.61149582  0.49772863    -0.90200
O616        O  0.86629780  0.56812105  0.48450511    -0.93000
C617        C  0.97948245  0.53312032  0.53385865     1.00700
C618        C  0.92038073  0.51032623  0.44906212     1.13600
C619        C  0.97244734  0.60691272  0.48126398     1.04400
O620        O  0.94874303  0.61905609  0.07918200    -0.95200
O621        O  0.89742347  0.64172195  0.05143592    -0.90900
O622        O  0.87559496  0.61840517  0.07957156    -0.84100
C623        C  0.88090149  0.63849539  0.07071209     1.11100
O624        O  0.90555434  0.58134903  0.40112541    -0.97200
Zr625      Zr  0.88846147  0.59048778  0.45075593     1.88900
O626        O  0.84454027  0.61975826  0.50228755    -0.73800
O627        O  0.92592525  0.65540621  0.50366140    -0.53100
O628        O  0.90196896  0.62462666  0.42420560    -0.97800
O629        O  0.85887172  0.57538176  0.41642117    -0.55000
O630        O  0.85839089  0.61949371  0.45369279    -0.74300
C631        C  0.84526414  0.62779413  0.47473950     0.98000
O632        O  0.84192494  0.58559730  0.08733221    -0.63200
O633        O  0.87750817  0.49832864  0.53090346    -0.58000
O634        O  0.83028463  0.56647483  0.52300656    -0.94600
O635        O  0.84048311  0.53116762  0.50361382    -0.93100
O636        O  0.92751654  0.51202478  0.08486579    -0.93400
O637        O  0.91576474  0.54812292  0.12164232    -0.92200
C638        C  0.82502587  0.54644764  0.51178364     1.16800
H639        H  0.92991167  0.51878342  0.52034061     0.32800
H640        H  0.90810370  0.59518666  0.08597590     0.43600
H641        H  0.85132291  0.56675756  0.47506923     0.37200
H642        H  0.93367121  0.60191549  0.45713040     0.33600
H643        H  0.94498141  0.58196815  0.11891693     0.25400
H644        H  0.94010093  0.66206372  0.51275171     0.31400
H645        H  0.90320402  0.63671664  0.44031890     0.37300
H646        H  0.94310305  0.50527887  0.08059322     0.31700
H647        H  0.87974728  0.50440781  0.55187754     0.30600
H648        H  0.85650594  0.49875317  0.46429898     0.32300
H649        H  0.84385099  0.58149699  0.42440086     0.31300
H650        H  0.90464991  0.56122630  0.12466712     0.35300
H651        H  0.85204386  0.58410412  0.10543880     0.28000
H652        H  0.97599007  0.53965539  0.43688220     0.32200
H653        H  0.92244531  0.58028339  0.40499827     0.35100
H654        H  0.86074035  0.49495098  0.52970581     0.27700
H655        H  0.83457358  0.60117096  0.08938444     0.40600
H656        H  0.94364213  0.63446012  0.08719388     0.30600
H657        H  0.96055229  0.55940715  0.12026232     0.38200
H658        H  0.85850255  0.55850068  0.42033394     0.30100
H659        H  0.92910516  0.65456400  0.48146405     0.30200
H660        H  0.96026851  0.55826060  0.42054364     0.30400
Zr661      Zr  0.75044424  0.78972056  0.31406873     2.17500
O662        O  0.78157175  0.80042674  0.27923346    -0.51900
O663        O  0.71587299  0.81293058  0.29808153    -0.75100
O664        O  0.74520694  0.77149261  0.26474031    -0.81900
O665        O  0.76895880  0.83673008  0.36755094    -0.83700
O666        O  0.74256795  0.73229572  0.26914147    -0.79300
O667        O  0.76045049  0.82990210  0.31759889    -0.90900
O668        O  0.68766586  0.80656556  0.33321756    -0.76900
O669        O  0.71863546  0.76470173  0.32099522    -0.86400
O670        O  0.73239332  0.80313724  0.35986027    -0.86100
O671        O  0.76801181  0.75166405  0.31824086    -0.72800
O672        O  0.77995380  0.78638949  0.35296820    -0.85000
Zr673      Zr  0.74380297  0.73536828  0.40923571     2.26400
Zr674      Zr  0.73565151  0.72658700  0.32400038     2.06300
Zr675      Zr  0.76117352  0.80051553  0.39833264     2.10000
Zr676      Zr  0.70101164  0.77779172  0.36773589     1.78800
O677        O  0.79920658  0.81173532  0.41695191    -0.93800
O678        O  0.66540364  0.76314001  0.34526655    -0.41600
O679        O  0.72914415  0.77468176  0.40699324    -0.78200
O680        O  0.71554474  0.73946615  0.36952092    -0.96900
O681        O  0.76337422  0.72167657  0.36450878    -0.90200
O682        O  0.77594452  0.76109738  0.40391909    -0.93000
C683        C  0.69548035  0.81681520  0.30977366     1.00700
C684        C  0.76677235  0.84333897  0.33931381     1.13600
C685        C  0.74438251  0.75087754  0.25333326     1.04400
O686        O  0.70043901  0.71766408  0.29599932    -0.95200
O687        O  0.71711621  0.69432523  0.34945170    -0.90900
O688        O  0.71866620  0.70168199  0.40049424    -0.84100
C689        C  0.71153842  0.68992818  0.37720559     1.11100
O690        O  0.82618331  0.75838572  0.32497936    -0.97200
Zr691      Zr  0.79515350  0.74721681  0.35947704     1.88900
O692        O  0.77398730  0.70799539  0.42410055    -0.73800
O693        O  0.75617527  0.69208509  0.30491799    -0.53100
O694        O  0.81243638  0.71675323  0.32742710    -0.97800
O695        O  0.82836748  0.76395264  0.38551617    -0.55000
O696        O  0.80576349  0.71651612  0.39632403    -0.74300
C697        C  0.79538622  0.70472927  0.41709789     0.98000
O698        O  0.72687926  0.72203913  0.45690950    -0.63200
O699        O  0.74245551  0.83323158  0.42468491    -0.58000
O700        O  0.74765863  0.75568131  0.45731861    -0.94600
O701        O  0.75645306  0.79398137  0.45355515    -0.93100
O702        O  0.68734304  0.80890625  0.40155828    -0.93400
O703        O  0.67419450  0.76270036  0.40551565    -0.92200
C704        C  0.75204756  0.77562558  0.46901888     1.16800
H705        H  0.72682606  0.81897807  0.35831766     0.32800
H706        H  0.70126119  0.73125697  0.37252331     0.43600
H707        H  0.78608498  0.76000591  0.42136431     0.37200
H708        H  0.77640048  0.74785304  0.29969462     0.33600
H709        H  0.65386849  0.77590487  0.34796925     0.25400
H710        H  0.76123664  0.68373281  0.32339173     0.31400
H711        H  0.80267482  0.70301732  0.33079798     0.37300
H712        H  0.67036004  0.80970594  0.39834100     0.31700
H713        H  0.75539980  0.84345330  0.43063822     0.30600
H714        H  0.80119633  0.80318050  0.43625229     0.32300
H715        H  0.82721273  0.75873383  0.40687928     0.31300
H716        H  0.68422495  0.75782989  0.42265188     0.35300
H717        H  0.71008382  0.72558904  0.45539958     0.28000
H718        H  0.78806585  0.78553211  0.27130425     0.32200
H719        H  0.81984142  0.77194646  0.31395639     0.35100
H720        H  0.73411150  0.84187595  0.40861532     0.27700
H721        H  0.72826229  0.70488001  0.45662262     0.40600
H722        H  0.68776808  0.72471218  0.30846898     0.30600
H723        H  0.66849770  0.76254616  0.32304349     0.38200
H724        H  0.82492370  0.78082329  0.38651203     0.30100
H725        H  0.74388266  0.68225653  0.29606676     0.30200
H726        H  0.79402851  0.80658897  0.29241516     0.30400
Zr727      Zr  0.73439182  0.78361138  0.15789834     2.17500
O728        O  0.69837072  0.78947100  0.18657921    -0.51900
O729        O  0.76154142  0.80558241  0.18949307    -0.75100
O730        O  0.73564825  0.76764856  0.20748176    -0.81900
O731        O  0.71566918  0.82950942  0.10222920    -0.83700
O732        O  0.75627946  0.73375192  0.20483727    -0.79300
O733        O  0.71867497  0.82173408  0.15261657    -0.90900
O734        O  0.79634438  0.80357517  0.16554595    -0.76900
O735        O  0.77206950  0.76689050  0.15749987    -0.86400
O736        O  0.75454907  0.80288409  0.11835034    -0.86100
O737        O  0.72763759  0.74300932  0.14999892    -0.72800
O738        O  0.71177094  0.77629765  0.11295594    -0.85000
Zr739      Zr  0.76573386  0.73733735  0.06408437     2.26400
Zr740      Zr  0.76585599  0.72648901  0.14998296     2.06300
Zr741      Zr  0.73252193  0.79563772  0.07337069     2.10000
Zr742      Zr  0.79181215  0.78544690  0.11681057     1.78800
O743        O  0.69411840  0.80126714  0.05150154    -0.93800
O744        O  0.82996132  0.77189698  0.13320962    -0.41600
O745        O  0.77073564  0.77830745  0.07109886    -0.78200
O746        O  0.78712781  0.74521412  0.10962869    -0.96900
O747        O  0.74549554  0.71794404  0.10367764    -0.90200
O748        O  0.72785759  0.75462563  0.06367809    -0.93000
C749        C  0.78333316  0.80996502  0.18783487     1.00700
C750        C  0.71305496  0.83509638  0.13077944     1.13600
C751        C  0.74522026  0.75001623  0.21972412     1.04400
O752        O  0.79844294  0.71637077  0.18256379    -0.95200
O753        O  0.79474903  0.70062698  0.12628677    -0.90900
O754        O  0.79410957  0.70718412  0.07530569    -0.84100
C755        C  0.80247785  0.69726811  0.09900897     1.11100
O756        O  0.67086855  0.74293204  0.12835463    -0.97200
Zr757      Zr  0.70787692  0.73518649  0.10285936     1.88900
O758        O  0.74597542  0.70472715  0.04141470    -0.73800
O759        O  0.74658360  0.69006229  0.16063427    -0.53100
O760        O  0.68870126  0.70423661  0.13022338    -0.97800
O761        O  0.67962067  0.74072695  0.06224086    -0.55000
O762        O  0.71421788  0.70006226  0.07125906    -0.74300
C763        C  0.72839155  0.69319392  0.05007906     0.98000
O764        O  0.79346337  0.73058916  0.51936588    -0.63200
O765        O  0.74833014  0.83018808  0.04995779    -0.58000
O766        O  0.76136178  0.75697865  0.51395536    -0.94600
O767        O  0.74382892  0.79255028  0.51850718    -0.93100
O768        O  0.79875848  0.82597050  0.10489576    -0.93400
O769        O  0.82291757  0.78834536  0.07933152    -0.92200
C770        C  0.75280250  0.77568065  0.50266901     1.16800
H771        H  0.75628199  0.81926543  0.12255413     0.32800
H772        H  0.80300516  0.73984908  0.10830877     0.43600
H773        H  0.72029714  0.75189175  0.04438356     0.37200
H774        H  0.71859230  0.73689927  0.16659690     0.33600
H775        H  0.83847817  0.78620326  0.13845781     0.25400
H776        H  0.75833576  0.67785764  0.15579631     0.31400
H777        H  0.67926710  0.69621350  0.11458348     0.37300
H778        H  0.81324928  0.82978433  0.11580221     0.31700
H779        H  0.73457134  0.83922008  0.04322996     0.30600
H780        H  0.69599886  0.81414387  0.03696554     0.32300
H781        H  0.67033135  0.75456428  0.06854665     0.31300
H782        H  0.81979919  0.77590035  0.06422097     0.35300
H783        H  0.80920799  0.73362455  0.52728879     0.28000
H784        H  0.69257916  0.77367241  0.19044616     0.32200
H785        H  0.67391513  0.75609019  0.14242269     0.35100
H786        H  0.75470318  0.83935736  0.06714394     0.27700
H787        H  0.79700388  0.71743447  0.01921557     0.40600
H788        H  0.80404365  0.73147503  0.19037835     0.30600
H789        H  0.82710951  0.76440415  0.15305201     0.38200
H790        H  0.66887516  0.72755849  0.06426652     0.30100
H791        H  0.74504477  0.68977042  0.18312254     0.30200
H792        H  0.68703512  0.79607892  0.17203354     0.30400
Zr793      Zr  0.54488443  0.31811871  0.13720979     2.17500
O794        O  0.52209711  0.30087641  0.17782257    -0.51900
O795        O  0.57942733  0.29234372  0.13471816    -0.75100
O796        O  0.52995165  0.28091024  0.12105611    -0.81900
O797        O  0.58817578  0.35141739  0.17879906    -0.83700
O798        O  0.52043789  0.28666586  0.07167530    -0.79300
O799        O  0.56050094  0.32512607  0.18709590    -0.90900
O800        O  0.57749162  0.29430533  0.08502467    -0.76900
O801        O  0.55020526  0.31329915  0.08354942    -0.86400
O802        O  0.58004176  0.33747833  0.12320450    -0.86100
O803        O  0.51036368  0.33547334  0.11499402    -0.72800
O804        O  0.53677321  0.35827822  0.15098436    -0.85000
Zr805      Zr  0.54513366  0.38870481  0.05977232     2.26400
Zr806      Zr  0.51627912  0.32897751  0.06180332     2.06300
Zr807      Zr  0.57252642  0.37635564  0.13875769     2.10000
Zr808      Zr  0.58443127  0.33332257  0.06965575     1.78800
O809        O  0.56118774  0.39828038  0.18430670    -0.93800
O810        O  0.60374895  0.30749618  0.03279237    -0.41600
O811        O  0.57894954  0.37295631  0.08435276    -0.78200
O812        O  0.55112264  0.34854830  0.04597386    -0.96900
O813        O  0.50965003  0.36981872  0.07164311    -0.90200
O814        O  0.54038252  0.39427003  0.11344865    -0.93000
C815        C  0.58791349  0.28714653  0.10850388     1.00700
C816        C  0.58060114  0.33328262  0.19212254     1.13600
C817        C  0.52451889  0.27325044  0.09453520     1.04400
O818        O  0.49954403  0.30092079  0.02670344    -0.95200
O819        O  0.51619713  0.34291144  0.01022026    -0.90900
O820        O  0.52919220  0.37991307  0.00907687    -0.84100
C821        C  0.52109036  0.36150290  0.99602701     1.11100
O822        O  0.47622741  0.36257075  0.16089639    -0.97200
Zr823      Zr  0.50458299  0.37715879  0.12463943     1.88900
O824        O  0.51949361  0.42268872  0.06367895    -0.73800
O825        O  0.47443819  0.33246326  0.06900522    -0.53100
O826        O  0.46579560  0.37768398  0.10273356    -0.97800
O827        O  0.50062663  0.39978841  0.17169930    -0.55000
O828        O  0.49973938  0.41900328  0.10799337    -0.74300
C829        C  0.50661819  0.43137707  0.08502976     0.98000
O830        O  0.56666508  0.40242028  0.01559599    -0.63200
O831        O  0.61338426  0.38516422  0.14630078    -0.58000
O832        O  0.56982047  0.42022072  0.07695817    -0.94600
O833        O  0.58552616  0.41359358  0.12384614    -0.93100
O834        O  0.62347981  0.33985170  0.08837587    -0.93400
O835        O  0.59898165  0.34550096  0.02015610    -0.92200
C836        C  0.58225126  0.42577199  0.10016148     1.16800
H837        H  0.59392106  0.33149439  0.13246385     0.32800
H838        H  0.55499357  0.34643702  0.02465765     0.43600
H839        H  0.54000372  0.41044626  0.11931824     0.37200
H840        H  0.49694731  0.32699543  0.12157988     0.33600
H841        H  0.61737826  0.30113307  0.04365086     0.25400
H842        H  0.46879097  0.33962457  0.04993662     0.31400
H843        H  0.46618075  0.38984558  0.08695956     0.37300
H844        H  0.62505494  0.35695069  0.08864067     0.31700
H845        H  0.61427263  0.39135706  0.16740407     0.30600
H846        H  0.56522160  0.41453732  0.17973468     0.32300
H847        H  0.48516969  0.40745860  0.17025338     0.31300
H848        H  0.60668432  0.36044840  0.02440403     0.35300
H849        H  0.57400257  0.38827209  0.00656207     0.28000
H850        H  0.52937980  0.28549077  0.18139088     0.32200
H851        H  0.48136370  0.34648610  0.16534473     0.35100
H852        H  0.62150181  0.36990207  0.14695218     0.27700
H853        H  0.57989178  0.41138273  0.02352482     0.40600
H854        H  0.51293216  0.29482431  0.01474262     0.30600
H855        H  0.59327511  0.29415146  0.02995304     0.38200
H856        H  0.51174900  0.41259777  0.16946992     0.30100
H857        H  0.46874525  0.31633204  0.06805926     0.30200
H858        H  0.50683952  0.29748120  0.16858648     0.30400
Zr859      Zr  0.57233396  0.13027675  0.05294161     2.17500
O860        O  0.57198121  0.16398403  0.51665860    -0.51900
O861        O  0.60730160  0.14464884  0.07965871    -0.75100
O862        O  0.55098352  0.16572876  0.06687263    -0.81900
O863        O  0.61660124  0.08986973  0.01221408    -0.83700
O864        O  0.52297563  0.15752757  0.10126592    -0.79300
O865        O  0.58867666  0.11950445  0.50657201    -0.90900
O866        O  0.61322082  0.12112760  0.11998749    -0.76900
O867        O  0.56261471  0.12294516  0.10461541    -0.86400
O868        O  0.59543353  0.09755830  0.06756311    -0.86100
O869        O  0.53138267  0.12201958  0.05185432    -0.72800
O870        O  0.56175576  0.09875195  0.01890434    -0.85000
Zr871      Zr  0.53726788  0.05138284  0.08641974     2.26400
Zr872      Zr  0.52200551  0.11488222  0.10396736     2.06300
Zr873      Zr  0.58618420  0.06619273  0.03284488     2.10000
Zr874      Zr  0.58582213  0.09025449  0.11893366     1.78800
O875        O  0.58820193  0.06088677  0.48175255    -0.93800
O876        O  0.58457383  0.10882858  0.16914921    -0.41600
O877        O  0.57803368  0.05808089  0.08548536    -0.78200
O878        O  0.54551489  0.08282340  0.12048189    -0.96900
O879        O  0.51203555  0.08243499  0.07212964    -0.90200
O880        O  0.54587662  0.05813791  0.03438684    -0.93000
C881        C  0.61852766  0.13854161  0.10382499     1.00700
C882        C  0.60997062  0.11327843  0.50671982     1.13600
C883        C  0.53461537  0.17199920  0.08529478     1.04400
O884        O  0.51925814  0.13009876  0.15591118    -0.95200
O885        O  0.49762246  0.08941105  0.13389140    -0.90900
O886        O  0.50687845  0.05168337  0.12389567    -0.84100
C887        C  0.49493683  0.06752367  0.13773305     1.11100
O888        O  0.50759359  0.11186042  0.48476111    -0.97200
Zr889      Zr  0.51981142  0.08557903  0.52497984     1.88900
O890        O  0.50718412  0.03142360  0.06006732    -0.73800
O891        O  0.48310556  0.12793172  0.08994819    -0.53100
O892        O  0.47837406  0.09389596  0.52960682    -0.97800
O893        O  0.52670418  0.07309088  0.47237711    -0.55000
O894        O  0.50269645  0.04508382  0.52311777    -0.74300
C895        C  0.49808246  0.03302972  0.03365397     0.98000
O896        O  0.54386474  0.02332534  0.12659444    -0.63200
O897        O  0.62177157  0.04410153  0.04206633    -0.58000
O898        O  0.55271171  0.01664640  0.06231337    -0.94600
O899        O  0.58057741  0.02441537  0.02716653    -0.93100
O900        O  0.62317172  0.07012427  0.12261021    -0.93400
O901        O  0.58304821  0.06311709  0.16086979    -0.92200
C902        C  0.56705747  0.01047300  0.04111304     1.16800
H903        H  0.61173926  0.10081768  0.06653658     0.32800
H904        H  0.54150692  0.07883844  0.14114797     0.43600
H905        H  0.54269194  0.04519947  0.02105898     0.37200
H906        H  0.52271149  0.13533540  0.04479931     0.33600
H907        H  0.60075484  0.10788698  0.17665478     0.25400
H908        H  0.47261614  0.11570407  0.09727775     0.31400
H909        H  0.47276821  0.08316437  0.54541968     0.37300
H910        H  0.63155773  0.07401377  0.10365462     0.31700
H911        H  0.63323844  0.05577150  0.04857522     0.30600
H912        H  0.57954326  0.07403444  0.47261878     0.32300
H913        H  0.51182667  0.06637652  0.46563693     0.31300
H914        H  0.59086446  0.04879398  0.15323988     0.35300
H915        H  0.53599235  0.00909894  0.11949963     0.28000
H916        H  0.57808492  0.17743471  0.52822633     0.32200
H917        H  0.51196273  0.12752097  0.49204417     0.35100
H918        H  0.62711785  0.03892435  0.02156750     0.27700
H919        H  0.56064258  0.01955806  0.12509037     0.40600
H920        H  0.50494975  0.13981896  0.15616694     0.30600
H921        H  0.58184954  0.12553278  0.16519338     0.38200
H922        H  0.53739024  0.05955192  0.47384947     0.30100
H923        H  0.47971265  0.14145983  0.10343415     0.30200
H924        H  0.55579674  0.16831588  0.51146705     0.30400
Zr925      Zr  0.93158670  0.16606344  0.36067353     2.17500
O926        O  0.94255182  0.17860989  0.41186036    -0.51900
O927        O  0.90143519  0.19421699  0.34389593    -0.75100
O928        O  0.95330309  0.20138636  0.35723700    -0.81900
O929        O  0.87767735  0.13474837  0.37423223    -0.83700
O930        O  0.97570886  0.19658124  0.31488942    -0.79300
O931        O  0.89770917  0.16536302  0.39289272    -0.90900
O932        O  0.91235494  0.19556347  0.29560246    -0.76900
O933        O  0.94225354  0.17331824  0.30915536    -0.86400
O934        O  0.90155778  0.14911754  0.33060677    -0.86100
O935        O  0.96896093  0.14679596  0.35305667    -0.72800
O936        O  0.93309190  0.12516396  0.37379117    -0.85000
Zr937      Zr  0.94975847  0.09690116  0.28181521     2.26400
Zr938      Zr  0.97898602  0.15466370  0.30119226     2.06300
Zr939      Zr  0.90300753  0.10896813  0.34321449     2.10000
Zr940      Zr  0.91290379  0.15551252  0.27969868     1.78800
O941        O  0.90724700  0.07807838  0.38041437    -0.93800
O942        O  0.92196479  0.17828635  0.23457198    -0.41600
O943        O  0.91793420  0.11822677  0.29678069    -0.78200
O944        O  0.94883816  0.13772123  0.27020424    -0.96900
O945        O  0.98061556  0.11326105  0.31026933    -0.90200
O946        O  0.93878528  0.08825116  0.33300936    -0.93000
C947        C  0.89845599  0.20172181  0.31667655     1.00700
C948        C  0.87892090  0.15408277  0.38915354     1.13600
C949        C  0.96651249  0.20927141  0.33638169     1.04400
O950        O  0.00993013  0.17873727  0.28115766    -0.95200
O951        O  0.98757060  0.14674706  0.24765150    -0.90900
O952        O  0.97357523  0.11058907  0.23904052    -0.84100
C953        C  0.98311118  0.12950561  0.22993892     1.11100
O954        O  0.98917433  0.11750565  0.40827588    -0.97200
Zr955      Zr  0.96970767  0.10484418  0.36172641     1.88900
O956        O  0.96885352  0.06010409  0.29843211    -0.73800
O957        O  0.01530622  0.14319089  0.32544562    -0.53100
O958        O  0.01190984  0.10058746  0.36125386    -0.97800
O959        O  0.95805047  0.08384122  0.40704893    -0.55000
O960        O  0.97929824  0.06334883  0.34777942    -0.74300
C961        C  0.97731808  0.05111089  0.32296380     0.98000
O962        O  0.94835857  0.06779536  0.24099784    -0.63200
O963        O  0.86687270  0.08927773  0.35516854    -0.58000
O964        O  0.91175450  0.08733783  0.26230566    -0.94600
O965        O  0.88355887  0.09504993  0.29720817    -0.93100
O966        O  0.87069745  0.15688688  0.27747630    -0.93400
O967        O  0.89870128  0.14177499  0.23054634    -0.92200
C968        C  0.89032862  0.08942934  0.27014877     1.16800
H969        H  0.88633733  0.15614352  0.33224545     0.32800
H970        H  0.94760873  0.14150946  0.24896119     0.43600
H971        H  0.93671230  0.07185825  0.33632537     0.37200
H972        H  0.98009466  0.15429205  0.36616165     0.33600
H973        H  0.90986867  0.19066757  0.23394551     0.25400
H974        H  0.02683423  0.14192612  0.30865541     0.31400
H975        H  0.01583616  0.09300141  0.34149975     0.37300
H976        H  0.86603349  0.14058538  0.27411038     0.31700
H977        H  0.86780177  0.07388133  0.34494422     0.30600
H978        H  0.90105639  0.08486115  0.39971969     0.32300
H979        H  0.95262810  0.06865271  0.39932198     0.31300
H980        H  0.91197990  0.13323048  0.22115243     0.35300
H981        H  0.94324034  0.07610804  0.22251715     0.28000
H982        H  0.93595270  0.19449207  0.41419635     0.32200
H983        H  0.99824470  0.13133073  0.40270461     0.35100
H984        H  0.85453008  0.09792218  0.34428512     0.27700
H985        H  0.96476328  0.06360076  0.23679110     0.40600
H986        H  0.00223791  0.18963814  0.26699165     0.30600
H987        H  0.93645374  0.18649791  0.23962229     0.38200
H988        H  0.94384699  0.09194515  0.41454692     0.30100
H989        H  0.02002798  0.15694687  0.33749803     0.30200
H990        H  0.95956909  0.18078421  0.41087105     0.30400
Zr991      Zr  0.90171550  0.34524110  0.32646043     2.17500
O992        O  0.88860327  0.31285952  0.29481501    -0.51900
O993        O  0.88012633  0.32782073  0.37049558    -0.75100
O994        O  0.92844125  0.31180459  0.32762026    -0.81900
O995        O  0.84722264  0.38002737  0.31931590    -0.83700
O996        O  0.96386336  0.32369841  0.34330920    -0.79300
O997        O  0.86595958  0.34936870  0.29880762    -0.90900
O998        O  0.88264464  0.35187173  0.41164189    -0.76900
O999        O  0.92619262  0.35338659  0.36841902    -0.86400
O1000       O  0.88217372  0.37540420  0.35440181    -0.86100
O1001       O  0.93730930  0.35806723  0.30240332    -0.72800
O1002       O  0.89914544  0.37752123  0.29103239    -0.85000
Zr1003     Zr  0.93904610  0.42817930  0.34130721     2.26400
Zr1004     Zr  0.96154037  0.36599115  0.34512281     2.06300
Zr1005     Zr  0.87880058  0.40726822  0.31927723     2.10000
Zr1006     Zr  0.90664781  0.38379517  0.39608079     1.78800
O1007       O  0.87029372  0.41768250  0.26682013    -0.93800
O1008       O  0.92792664  0.36679050  0.43844874    -0.41600
O1009       O  0.90279701  0.41606938  0.36265552    -0.78200
O1010       O  0.94247722  0.39575119  0.37512628    -0.96900
O1011       O  0.95977445  0.39930818  0.31268780    -0.90200
O1012       O  0.91454006  0.42107427  0.29859092    -0.93000
C1013       C  0.87522320  0.33341707  0.39861929     1.00700
C1014       C  0.84770350  0.35896571  0.30995922     1.13600
C1015       C  0.94967851  0.30786617  0.33506605     1.04400
O1016       O  0.98644779  0.34861050  0.38361786    -0.95200
O1017       O  0.98859575  0.39152640  0.36954115    -0.90900
O1018       O  0.97660866  0.42909646  0.36568816    -0.84100
C1019       C  0.99073212  0.41331386  0.37493820     1.11100
O1020       O  0.93388712  0.36432277  0.22870102    -0.97200
Zr1021     Zr  0.93529997  0.39256015  0.27042486     1.88900
O1022       O  0.95726877  0.45117777  0.30284820    -0.73800
O1023       O  0.99242419  0.36004268  0.30763208    -0.53100
O1024       O  0.97461835  0.38456921  0.25231648    -0.97800
O1025       O  0.91448847  0.40456778  0.22482239    -0.55000
O1026       O  0.95057645  0.43246138  0.25802795    -0.74300
C1027       C  0.95765628  0.45029655  0.27375382     0.98000
O1028       O  0.94668695  0.45938437  0.37714181    -0.63200
O1029       O  0.84191461  0.42845430  0.32258232    -0.58000
O1030       O  0.91041237  0.45819771  0.33114862    -0.94600
O1031       O  0.87654116  0.44401833  0.34616749    -0.93100
O1032       O  0.87255734  0.40314994  0.41803553    -0.93400
O1033       O  0.91633774  0.41027224  0.43757420    -0.92200
C1034       C  0.89166210  0.46002373  0.34637735     1.16800
H1035       H  0.86748777  0.37081688  0.36284163     0.32800
H1036       H  0.95131923  0.39984680  0.39292595     0.43600
H1037       H  0.91178467  0.43452129  0.28610135     0.37200
H1038       H  0.94392352  0.34538570  0.29047117     0.33600
H1039       H  0.92438097  0.35003963  0.43770735     0.25400
H1040       H  0.00448309  0.35102677  0.31852660     0.31400
H1041       H  0.97630863  0.39435631  0.23403565     0.37300
H1042       H  0.86184265  0.40529313  0.40067054     0.31700
H1043       H  0.83237530  0.42243665  0.30561575     0.30600
H1044       H  0.86965267  0.43486366  0.26700971     0.32300
H1045       H  0.92685394  0.40801809  0.20981905     0.31300
H1046       H  0.92488372  0.42293402  0.42763762     0.35300
H1047       H  0.93414132  0.45855507  0.39244335     0.28000
H1048       H  0.89118557  0.29849776  0.30659331     0.32200
H1049       H  0.92687145  0.35038959  0.23775584     0.35100
H1050       H  0.83432080  0.42270223  0.34129722     0.27700
H1051       H  0.94401158  0.47395676  0.36591791     0.40600
H1052       H  0.97559187  0.34241379  0.39897420     0.30600
H1053       H  0.94446437  0.36757517  0.43236529     0.38200
H1054       H  0.90771625  0.41997007  0.23010107     0.30100
H1055       H  0.98609520  0.34890397  0.29255275     0.30200
H1056       H  0.89970578  0.31190244  0.27754857     0.30400
Zr1057     Zr  0.71321746  0.22509197  0.53821051     2.17500
O1058       O  0.70861921  0.19110895  0.07532372    -0.51900
O1059       O  0.68167769  0.24229314  0.05629619    -0.75100
O1060       O  0.72902335  0.23255875  0.08703555    -0.81900
O1061       O  0.67532104  0.19819606  0.47582546    -0.83700
O1062       O  0.76503240  0.24830551  0.08429153    -0.79300
O1063       O  0.68509426  0.19489457  0.52579961    -0.90900
O1064       O  0.67905447  0.28115788  0.53450445    -0.76900
O1065       O  0.73044910  0.26253115  0.53637906    -0.86400
O1066       O  0.69390140  0.24466526  0.49774213    -0.86100
O1067       O  0.75434487  0.21941910  0.53226024    -0.72800
O1068       O  0.71985755  0.20225541  0.49353873    -0.85000
Zr1069     Zr  0.76007298  0.25094458  0.44198194     2.26400
Zr1070     Zr  0.77147131  0.25739328  0.52696099     2.06300
Zr1071     Zr  0.70243562  0.22316607  0.45205270     2.10000
Zr1072     Zr  0.71099216  0.28182432  0.49642669     1.78800
O1073       O  0.69598651  0.18911871  0.41989767    -0.93800
O1074       O  0.71752338  0.31432926  0.53120286    -0.41600
O1075       O  0.71974066  0.26039979  0.45001623    -0.78200
O1076       O  0.75195304  0.27596402  0.48558379    -0.96900
O1077       O  0.77851571  0.23250500  0.48389935    -0.90200
O1078       O  0.74272293  0.21403164  0.44473798    -0.93000
C1079       C  0.67236758  0.26686647  0.55515574     1.00700
C1080       C  0.67311058  0.18929560  0.50214964     1.13600
C1081       C  0.74711976  0.24129732  0.09926641     1.04400
O1082       O  0.77711123  0.29555516  0.55010253    -0.95200
O1083       O  0.80287949  0.27700511  0.49616772    -0.90900
O1084       O  0.79610510  0.27086003  0.44563879    -0.84100
C1085       C  0.80814935  0.27920042  0.46738768     1.11100
O1086       O  0.75683636  0.16415266  0.52403673    -0.97200
Zr1087     Zr  0.76024214  0.19583012  0.48796059     1.88900
O1088       O  0.78790800  0.22300775  0.41856365    -0.73800
O1089       O  0.80651910  0.24071140  0.54903991    -0.53100
O1090       O  0.79711615  0.18256979  0.50894825    -0.97800
O1091       O  0.74770674  0.16013888  0.46308110    -0.55000
O1092       O  0.78831837  0.19161373  0.44906716    -0.74300
C1093       C  0.79564023  0.20279933  0.42622996     0.98000
O1094       O  0.76905510  0.28287476  0.40796691    -0.63200
O1095       O  0.66521788  0.24093321  0.43879032    -0.58000
O1096       O  0.73953741  0.24755405  0.39405483    -0.94600
O1097       O  0.70321897  0.23344449  0.39830471    -0.93100
O1098       O  0.67781874  0.29339860  0.46560270    -0.93400
O1099       O  0.71818099  0.31862710  0.47153675    -0.92200
C1100       C  0.71993879  0.24165307  0.38266693     1.16800
H1101       H  0.67732232  0.24534919  0.50071960     0.32800
H1102       H  0.75877259  0.29095126  0.48218853     0.43600
H1103       H  0.74510144  0.20504233  0.42621427     0.37200
H1104       H  0.76133521  0.20715026  0.05220298     0.33600
H1105       H  0.70256460  0.32301545  0.53170747     0.25400
H1106       H  0.80524634  0.22162519  0.05917991     0.31400
H1107       H  0.80016694  0.19334880  0.52614522     0.37300
H1108       H  0.67049467  0.30649089  0.47707815     0.31700
H1109       H  0.65924051  0.23109388  0.42196970     0.30600
H1110       H  0.70330008  0.17605871  0.43093578     0.32300
H1111       H  0.74906570  0.16307778  0.44096665     0.31300
H1112       H  0.72097570  0.31440406  0.44986843     0.35300
H1113       H  0.77603392  0.27548755  0.38953517     0.28000
H1114       H  0.70012831  0.19881371  0.09241894     0.32200
H1115       H  0.74952417  0.17117457  0.54245909     0.35100
H1116       H  0.65473026  0.23785504  0.45614191     0.27700
H1117       H  0.75389620  0.28920325  0.40116092     0.40600
H1118       H  0.78225506  0.30109607  0.03409186     0.30600
H1119       H  0.71869421  0.30728677  0.55163581     0.38200
H1120       H  0.73078834  0.15956657  0.46703685     0.30100
H1121       H  0.82076304  0.23829868  0.04016078     0.30200
H1122       H  0.72418823  0.18742806  0.08356990     0.30400
Zr1123     Zr  0.70428884  0.24886600  0.19187478     2.17500
O1124       O  0.69079612  0.27840429  0.15667719    -0.51900
O1125       O  0.68387224  0.21757723  0.16762546    -0.75100
O1126       O  0.72499713  0.24512455  0.14367032    -0.81900
O1127       O  0.66196189  0.27026462  0.25281874    -0.83700
O1128       O  0.76425650  0.24233675  0.14923644    -0.79300
O1129       O  0.66574262  0.26557975  0.20130907    -0.90900
O1130       O  0.69718702  0.18485632  0.18986186    -0.76900
O1131       O  0.73418080  0.22005905  0.19408101    -0.86400
O1132       O  0.69238000  0.22418800  0.23230019    -0.86100
O1133       O  0.74009983  0.26874034  0.19944988    -0.72800
O1134       O  0.70140500  0.27218505  0.23689342    -0.85000
Zr1135     Zr  0.75555211  0.24077526  0.28798918     2.26400
Zr1136     Zr  0.77014165  0.23930935  0.20457695     2.06300
Zr1137     Zr  0.69146038  0.24733461  0.27833178     2.10000
Zr1138     Zr  0.72214795  0.19535847  0.23365251     1.78800
O1139       O  0.66432414  0.26937622  0.31047953    -0.93800
O1140       O  0.74470747  0.16635642  0.20495905    -0.41600
O1141       O  0.72120839  0.21821579  0.28037352    -0.78200
O1142       O  0.75813072  0.21467923  0.24497229    -0.96900
O1143       O  0.76676905  0.26499576  0.24744336    -0.90200
O1144       O  0.72573413  0.26933585  0.28604034    -0.93000
C1145       C  0.68461378  0.19549683  0.16987582     1.00700
C1146       C  0.65519546  0.27337843  0.22533884     1.13600
C1147       C  0.74574878  0.24336485  0.13287587     1.04400
O1148       O  0.78722233  0.20400954  0.18262689    -0.95200
O1149       O  0.80607691  0.23107959  0.23510868    -0.90900
O1150       O  0.79581178  0.23237819  0.28519319    -0.84100
C1151       C  0.81064514  0.22917595  0.26396062     1.11100
O1152       O  0.71688999  0.32052388  0.21017385    -0.97200
Zr1153     Zr  0.73595924  0.29281920  0.24378005     1.88900
O1154       O  0.77423376  0.27498216  0.30935527    -0.73800
O1155       O  0.79926098  0.26555058  0.18496801    -0.53100
O1156       O  0.76350908  0.31820528  0.21897697    -0.97800
O1157       O  0.71438899  0.32051775  0.27582613    -0.55000
O1158       O  0.76204329  0.30557435  0.28156507    -0.74300
C1159       C  0.77435267  0.29656421  0.30247143     0.98000
O1160       O  0.77149796  0.21313387  0.32449444    -0.63200
O1161       O  0.66367888  0.21624977  0.28459259    -0.58000
O1162       O  0.73878552  0.24335341  0.33702198    -0.94600
O1163       O  0.69962339  0.24356729  0.33388596    -0.93100
O1164       O  0.69149736  0.17232979  0.25618372    -0.93400
O1165       O  0.73847681  0.16464803  0.26507034    -0.92200
C1166       C  0.71877090  0.24304947  0.34912308     1.16800
H1167       H  0.67734897  0.21768077  0.22815572     0.32800
H1168       H  0.76998084  0.20293942  0.24858123     0.43600
H1169       H  0.72472069  0.27860129  0.30454552     0.37200
H1170       H  0.74338409  0.27840324  0.18213116     0.33600
H1171       H  0.73474103  0.15248280  0.20426162     0.25400
H1172       H  0.80568476  0.27322808  0.20334834     0.31400
H1173       H  0.77886237  0.31079352  0.22251322     0.37300
H1174       H  0.67714548  0.17702931  0.24538674     0.31700
H1175       H  0.66886533  0.20804796  0.30311818     0.30600
H1176       H  0.66992170  0.28554778  0.30981390     0.32300
H1177       H  0.69820187  0.32003605  0.26839162     0.31300
H1178       H  0.74140725  0.17224174  0.28503137     0.35300
H1179       H  0.77669538  0.22235509  0.34239465     0.28000
H1180       H  0.68721250  0.26973009  0.13773594     0.32200
H1181       H  0.70023532  0.31653026  0.21084890     0.35100
H1182       H  0.64905568  0.22426220  0.29077795     0.27700
H1183       H  0.75829660  0.20392229  0.33192521     0.40600
H1184       H  0.80214121  0.20895268  0.17373688     0.30600
H1185       H  0.74482588  0.17201315  0.18373067     0.38200
H1186       H  0.72008525  0.33595245  0.26979983     0.30100
H1187       H  0.81197281  0.25521225  0.17748859     0.30200
H1188       H  0.70470022  0.28756824  0.15168486     0.30400
Zr1189     Zr  0.36389841  0.00151889  0.19051750     2.17500
O1190       O  0.37921858  0.98753858  0.14162990    -0.51900
O1191       O  0.39334641  0.98403875  0.22240587    -0.75100
O1192       O  0.40087313  0.02023891  0.18310479    -0.81900
O1193       O  0.31398370  0.96656116  0.16728968    -0.83700
O1194       O  0.39766098  0.05642838  0.20360254    -0.79300
O1195       O  0.35220918  0.96249563  0.17763642    -0.90900
O1196       O  0.38826570  0.00255096  0.26776309    -0.76900
O1197       O  0.36917963  0.02748569  0.23208730    -0.86400
O1198       O  0.33848310  0.98752807  0.22914670    -0.86100
O1199       O  0.35478441  0.03958223  0.17204650    -0.72800
O1200       O  0.32560645  0.00341335  0.16979703    -0.85000
Zr1201     Zr  0.29452095  0.05432987  0.23157684     2.26400
Zr1202     Zr  0.35767923  0.06514369  0.21579136     2.06300
Zr1203     Zr  0.29957006  0.99129628  0.20904316     2.10000
Zr1204     Zr  0.34535480  0.01329151  0.27072551     1.78800
O1205       O  0.27215517  0.96244281  0.19103246    -0.93800
O1206       O  0.36156705  0.03604859  0.31246256    -0.41600
O1207       O  0.30560324  0.01678577  0.25149546    -0.78200
O1208       O  0.33258217  0.05159963  0.25520759    -0.96900
O1209       O  0.32055367  0.06616084  0.19305469    -0.90200
O1210       O  0.28993930  0.02871248  0.18916127    -0.93000
C1211       C  0.40117096  0.99095111  0.24824082     1.00700
C1212       C  0.33404672  0.95724100  0.16249896     1.13600
C1213       C  0.40944146  0.03980891  0.19111723     1.04400
O1214       O  0.37359608  0.08230348  0.26204795    -0.95200
O1215       O  0.33398806  0.10086727  0.21636337    -0.90900
O1216       O  0.30662458  0.09160639  0.24994285    -0.84100
C1217       C  0.31583057  0.10619421  0.23223299     1.11100
O1218       O  0.32795582  0.02069173  0.10400932    -0.97200
Zr1219     Zr  0.31654572  0.04071834  0.15100848     1.88900
O1220       O  0.27950206  0.08470005  0.19617440    -0.73800
O1221       O  0.37845665  0.09401867  0.18660638    -0.53100
O1222       O  0.33814992  0.06551263  0.11670742    -0.97800
O1223       O  0.28339842  0.02889833  0.12039406    -0.55000
O1224       O  0.29496885  0.07665723  0.14939106    -0.74300
C1225       C  0.28370483  0.08988359  0.16803814     0.98000
O1226       O  0.27345303  0.06353199  0.27865879    -0.63200
O1227       O  0.29919251  0.96343777  0.25043659    -0.58000
O1228       O  0.25487322  0.04003769  0.23107353    -0.94600
O1229       O  0.25792452  0.00225245  0.21605487    -0.93100
O1230       O  0.34423830  0.97474699  0.29309445    -0.93400
O1231       O  0.32413272  0.01412490  0.31894789    -0.92200
C1232       C  0.24579314  0.02048093  0.22382993     1.16800
H1233       H  0.34238368  0.97165034  0.23411344     0.32800
H1234       H  0.33320374  0.06182491  0.27279299     0.43600
H1235       H  0.27459831  0.02967926  0.18044879     0.37200
H1236       H  0.36590828  0.04390306  0.15661476     0.33600
H1237       H  0.36836353  0.02443770  0.32646982     0.25400
H1238       H  0.36694968  0.10010156  0.17190798     0.31400
H1239       H  0.32628535  0.07252029  0.10324613     0.37300
H1240       H  0.35897641  0.96705896  0.28671691     0.31700
H1241       H  0.28254529  0.96090660  0.25469753     0.30600
H1242       H  0.26644456  0.96853074  0.17134283     0.32300
H1243       H  0.27019405  0.03869760  0.12757421     0.31300
H1244       H  0.30761546  0.01254067  0.31325677     0.35300
H1245       H  0.26874872  0.04835220  0.28679583     0.28000
H1246       H  0.39210460  0.97676820  0.14680146     0.32200
H1247       H  0.34360331  0.01423381  0.10828991     0.35100
H1248       H  0.30475727  0.94866859  0.24099865     0.27700
H1249       H  0.28549028  0.06889193  0.29310303     0.40600
H1250       H  0.38909426  0.08784561  0.25585362     0.30600
H1251       H  0.37514603  0.04376679  0.30343285     0.38200
H1252       H  0.27977682  0.01305890  0.12745332     0.30100
H1253       H  0.38097573  0.10700499  0.20114517     0.30200
H1254       H  0.38676832  0.00103221  0.13220118     0.30400
Zr1255     Zr  0.03064955  0.06428373  0.17347139     2.17500
O1256       O  0.00455583  0.07799668  0.21281338    -0.51900
O1257       O  0.00206546  0.04155994  0.14736521    -0.75100
O1258       O  0.00666523  0.09332653  0.14934883    -0.81900
O1259       O  0.05203259  0.04068927  0.23037005    -0.83700
O1260       O  0.02745272  0.11591637  0.11724703    -0.79300
O1261       O  0.01746072  0.03706397  0.21046632    -0.90900
O1262       O  0.02220487  0.01919466  0.11339256    -0.76900
O1263       O  0.04292272  0.06729701  0.12205652    -0.86400
O1264       O  0.05432454  0.03013377  0.16544408    -0.86100
O1265       O  0.05161065  0.09984047  0.17133039    -0.72800
O1266       O  0.06168981  0.06492544  0.21018866    -0.85000
Zr1267     Zr  0.12073386  0.07070026  0.14884934     2.26400
Zr1268     Zr  0.06677990  0.10122886  0.12014691     2.06300
Zr1269     Zr  0.08680284  0.03207358  0.20015587     2.10000
Zr1270     Zr  0.06472383  0.03280686  0.11399184     1.78800
O1271       O  0.09508415  0.01503877  0.24947057    -0.93800
O1272       O  0.05320345  0.04155018  0.06187009    -0.41600
O1273       O  0.09855533  0.03508497  0.14804168    -0.78200
O1274       O  0.08973536  0.06688229  0.11138809    -0.96900
O1275       O  0.09654880  0.10364356  0.15758862    -0.90200
O1276       O  0.10721791  0.06770698  0.19972435    -0.93000
C1277       C  0.00278366  0.02554774  0.12699280     1.00700
C1278       C  0.03337174  0.02917009  0.22755429     1.13600
C1279       C  0.00888032  0.11082656  0.13168374     1.04400
O1280       O  0.06005510  0.10020056  0.06538636    -0.95200
O1281       O  0.10065768  0.11926571  0.09741118    -0.90900
O1282       O  0.13272478  0.09900017  0.11210561    -0.84100
C1283       C  0.12268887  0.11554458  0.09777369     1.11100
O1284       O  0.05274984  0.11423870  0.24446137    -0.97200
Zr1285     Zr  0.08193334  0.10028134  0.20807646     1.88900
O1286       O  0.14443590  0.09903597  0.17948819    -0.73800
O1287       O  0.06608120  0.14348416  0.12384760    -0.53100
O1288       O  0.07757287  0.14215178  0.20261848    -0.97800
O1289       O  0.09052690  0.09455216  0.26190937    -0.55000
O1290       O  0.11981472  0.11541870  0.21433427    -0.74300
C1291       C  0.13975266  0.11336159  0.20186098     0.98000
O1292       O  0.15041205  0.05332555  0.11564683    -0.63200
O1293       O  0.08333585  0.99084175  0.18860029    -0.58000
O1294       O  0.14894653  0.04584573  0.17324226    -0.94600
O1295       O  0.12923865  0.02626241  0.20955188    -0.93100
O1296       O  0.06829784  0.99087114  0.11909722    -0.93400
O1297       O  0.08906260  0.01452039  0.07478728    -0.92200
C1298       C  0.14824613  0.03222074  0.19606144     1.16800
H1299       H  0.04572666  0.01612720  0.16806938     0.32800
H1300       H  0.09644621  0.06748143  0.09115889     0.43600
H1301       H  0.11958778  0.06808749  0.21448618     0.37200
H1302       H  0.04148693  0.11305722  0.17553288     0.33600
H1303       H  0.04510820  0.02748350  0.05463758     0.25400
H1304       H  0.05722557  0.14888014  0.10590947     0.31400
H1305       H  0.08283946  0.14874453  0.22231702     0.37300
H1306       H  0.05784973  0.98445668  0.10334018     0.31700
H1307       H  0.09621165  0.98743795  0.17413014     0.30600
H1308       H  0.09917079  0.02848039  0.26258405     0.32300
H1309       H  0.10726928  0.09771437  0.26431534     0.31300
H1310       H  0.10473708  0.01386281  0.08390528     0.35300
H1311       H  0.14431644  0.05498863  0.09470565     0.28000
H1312       H  0.99017450  0.08157502  0.20146596     0.32200
H1313       H  0.04018201  0.12090474  0.23185043     0.35100
H1314       H  0.08805904  0.98290770  0.20752024     0.27700
H1315       H  0.16373361  0.06398231  0.11671475     0.40600
H1316       H  0.05188210  0.11504662  0.06111919     0.30600
H1317       H  0.04075086  0.05349269  0.06387288     0.38200
H1318       H  0.08929952  0.07760208  0.26482446     0.30100
H1319       H  0.05610003  0.14734995  0.14165203     0.30200
H1320       H  0.01123931  0.09314618  0.21833669     0.30400
Zr1321     Zr  0.44222416  0.43168420  0.44916788     2.17500
O1322       O  0.47224104  0.41521407  0.48179088    -0.51900
O1323       O  0.47215770  0.46001161  0.44123024    -0.75100
O1324       O  0.46403769  0.41137321  0.40914577    -0.81900
O1325       O  0.40144635  0.46045984  0.50614647    -0.83700
O1326       O  0.45227589  0.37736645  0.39344772    -0.79300
O1327       O  0.43388419  0.43755668  0.50376547    -0.90900
O1328       O  0.46429827  0.47199517  0.39345881    -0.76900
O1329       O  0.43871195  0.42816122  0.39506307    -0.86400
O1330       O  0.42347486  0.46779844  0.43658349    -0.86100
O1331       O  0.42211501  0.39611033  0.43715149    -0.72800
O1332       O  0.40466355  0.43211402  0.46502088    -0.85000
Zr1333     Zr  0.35951123  0.42764295  0.39782379     2.26400
Zr1334     Zr  0.41503536  0.39496785  0.38217754     2.06300
Zr1335     Zr  0.38454637  0.46603433  0.45678989     2.10000
Zr1336     Zr  0.42100049  0.46371240  0.38266253     1.78800
O1337       O  0.37286251  0.49033438  0.50033650    -0.93800
O1338       O  0.44051521  0.45477343  0.33442921    -0.41600
O1339       O  0.38406040  0.45949607  0.40563923    -0.78200
O1340       O  0.39590575  0.43070110  0.36952831    -0.96900
O1341       O  0.37992278  0.39325053  0.41108398    -0.90200
O1342       O  0.36368508  0.43111953  0.45133665    -0.93000
C1343       C  0.47864056  0.46964684  0.41644318     1.00700
C1344       C  0.41812127  0.44914573  0.51857307     1.13600
C1345       C  0.46699219  0.38947258  0.40782677     1.04400
O1346       O  0.42884368  0.40284286  0.33080754    -0.95200
O1347       O  0.38236297  0.37578611  0.35619016    -0.90900
O1348       O  0.35058738  0.39925571  0.35879368    -0.84100
C1349       C  0.36105691  0.38072103  0.34964871     1.11100
O1350       O  0.41670690  0.34768061  0.98965498    -0.97200
Zr1351     Zr  0.38635835  0.39740079  0.46436573     1.88900
O1352       O  0.33343863  0.39785801  0.42213560    -0.73800
O1353       O  0.41802499  0.35375023  0.36870987    -0.53100
O1354       O  0.37969954  0.35643696  0.45308382    -0.97800
O1355       O  0.38442037  0.37392766  0.01451559    -0.55000
O1356       O  0.34593846  0.39267114  0.47043964    -0.74300
C1357       C  0.33143926  0.38920499  0.44931661     0.98000
O1358       O  0.33707169  0.44494256  0.35661051    -0.63200
O1359       O  0.39004272  0.50604909  0.44066881    -0.58000
O1360       O  0.32751448  0.45161025  0.41540654    -0.94600
O1361       O  0.34179868  0.47297880  0.45449219    -0.93100
O1362       O  0.42017043  0.50603002  0.38427538    -0.93400
O1363       O  0.40290942  0.48488395  0.34102373    -0.92200
C1364       C  0.32491719  0.46617238  0.43738954     1.16800
H1365       H  0.43177002  0.48145582  0.44334379     0.32800
H1366       H  0.39259575  0.43089447  0.34794372     0.43600
H1367       H  0.34930644  0.43222729  0.46261901     0.37200
H1368       H  0.43069974  0.38266707  0.44386285     0.33600
H1369       H  0.44883314  0.46914977  0.32927715     0.25400
H1370       H  0.43188878  0.35189341  0.35543966     0.31400
H1371       H  0.40317305  0.33064384  0.93326234     0.37300
H1372       H  0.43389688  0.51040468  0.39642595     0.31700
H1373       H  0.37412790  0.51267956  0.43911743     0.30600
H1374       H  0.36023073  0.48190909  0.51064982     0.32300
H1375       H  0.37748070  0.38937102  0.01927096     0.31300
H1376       H  0.38687200  0.47895125  0.34012004     0.35300
H1377       H  0.33984109  0.46182476  0.35845423     0.28000
H1378       H  0.47826409  0.42835199  0.49403182     0.32200
H1379       H  0.40598096  0.33507836  0.99511204     0.35100
H1380       H  0.39684103  0.51414262  0.45848464     0.27700
H1381       H  0.34531355  0.44031161  0.33760443     0.40600
H1382       H  0.44571630  0.39946309  0.33147830     0.30600
H1383       H  0.45302311  0.44357182  0.33967343     0.38200
H1384       H  0.37135212  0.36302645  0.01624921     0.30100
H1385       H  0.42194677  0.34562268  0.38783000     0.30200
H1386       H  0.45960780  0.37132974  0.98811349     0.30400
Zr1387     Zr  0.10473469  0.48020425  0.45556332     2.17500
O1388       O  0.08378075  0.50860951  0.42503279    -0.51900
O1389       O  0.07723756  0.49873273  0.49029102    -0.75100
O1390       O  0.07193603  0.45612904  0.44730402    -0.81900
O1391       O  0.15237008  0.50776693  0.40688914    -0.83700
O1392       O  0.07999135  0.42036357  0.46601617    -0.79300
O1393       O  0.11526648  0.49541447  0.40747382    -0.90900
O1394       O  0.09512088  0.48728554  0.03696864    -0.76900
O1395       O  0.10544230  0.45994323  0.50182778    -0.86400
O1396       O  0.13278124  0.50279826  0.48178194    -0.86100
O1397       O  0.11434855  0.44139908  0.43831087    -0.72800
O1398       O  0.14333678  0.46690599  0.45296346    -0.85000
Zr1399     Zr  0.18291150  0.43838690  0.48445731     2.26400
Zr1400     Zr  0.11909315  0.42172886  0.48674700     2.06300
Zr1401     Zr  0.16988414  0.49742404  0.45583201     2.10000
Zr1402     Zr  0.13632123  0.47155415  0.03223163     1.78800
O1403       O  0.17991055  0.53131935  0.42632094    -0.93800
O1404       O  0.11733231  0.45069004  0.07325053    -0.41600
O1405       O  0.17192078  0.47725357  0.50248889    -0.78200
O1406       O  0.14882278  0.43298847  0.01503167    -0.96900
O1407       O  0.15344095  0.41962207  0.45591232    -0.90200
O1408       O  0.18139709  0.45960210  0.43764401    -0.93000
C1409       C  0.07569063  0.50077746  0.51927171     1.00700
C1410       C  0.13247642  0.50481397  0.39441346     1.13600
C1411       C  0.06686553  0.43498569  0.45220089     1.04400
O1412       O  0.10590609  0.40767035  0.02641508    -0.95200
O1413       O  0.14752387  0.38355805  0.97382507    -0.90900
O1414       O  0.17556463  0.39279492  0.00630531    -0.84100
C1415       C  0.16627714  0.37827500  0.98825297     1.11100
O1416       O  0.12242921  0.45200924  0.37272674    -0.97200
Zr1417     Zr  0.15047102  0.44132905  0.41135880     1.88900
O1418       O  0.19842952  0.40685775  0.44958640    -0.73800
O1419       O  0.10268442  0.38327903  0.49355430    -0.53100
O1420       O  0.13961127  0.40452859  0.38796418    -0.97800
O1421       O  0.16610826  0.46612056  0.37170381    -0.55000
O1422       O  0.17918849  0.41103222  0.40484449    -0.74300
C1423       C  0.19336543  0.40009108  0.42210207     0.98000
O1424       O  0.20879539  0.42367025  0.03446643    -0.63200
O1425       O  0.17644746  0.52692638  0.49495517    -0.58000
O1426       O  0.22042825  0.45544423  0.47490850    -0.94600
O1427       O  0.21260462  0.49115287  0.45558393    -0.93100
O1428       O  0.14193412  0.50949405  0.05608607    -0.93400
O1429       O  0.16020429  0.46901071  0.07780732    -0.92200
C1430       C  0.22683376  0.47484839  0.46376049     1.16800
H1431       H  0.12795206  0.51885084  0.48417204     0.32800
H1432       H  0.14914989  0.42280722  0.03234867     0.43600
H1433       H  0.19545142  0.45867511  0.42565939     0.37200
H1434       H  0.10382168  0.43433236  0.42411459     0.33600
H1435       H  0.10209719  0.44619181  0.06479925     0.25400
H1436       H  0.08682056  0.38580512  0.50176576     0.31400
H1437       H  0.14305121  0.40630832  0.36597338     0.37300
H1438       H  0.12695695  0.51789582  0.05376259     0.31700
H1439       H  0.19302508  0.53089877  0.49280864     0.30600
H1440       H  0.19675396  0.53329907  0.42957854     0.32300
H1441       H  0.17113449  0.45521623  0.35529237     0.31300
H1442       H  0.17450518  0.46068758  0.07101575     0.35300
H1443       H  0.21105150  0.43935182  0.04340401     0.28000
H1444       H  0.08485767  0.52339347  0.43665157     0.32200
H1445       H  0.11201436  0.43858439  0.37045887     0.35100
H1446       H  0.16790021  0.54085711  0.48780492     0.27700
H1447       H  0.19797989  0.41619438  0.04880361     0.40600
H1448       H  0.08892568  0.40769711  0.02302690     0.30600
H1449       H  0.12603754  0.43587580  0.07517557     0.38200
H1450       H  0.18069747  0.47257958  0.37975211     0.30100
H1451       H  0.10046029  0.37700838  0.47266880     0.30200
H1452       H  0.06727641  0.50421769  0.42685951     0.30400
Zr1453     Zr  0.22798937  0.23026969  0.23492933     2.17500
O1454       O  0.19409094  0.23188773  0.20196626    -0.51900
O1455       O  0.24901083  0.19736907  0.21362871    -0.75100
O1456       O  0.23953112  0.24346911  0.18606356    -0.81900
O1457       O  0.19975393  0.18824260  0.28820064    -0.83700
O1458       O  0.26340269  0.27436145  0.18980455    -0.79300
O1459       O  0.20391683  0.19694638  0.23795731    -0.90900
O1460       O  0.28305583  0.21155328  0.22657686    -0.76900
O1461       O  0.26764002  0.24138456  0.23841651    -0.86400
O1462       O  0.24362701  0.20848521  0.27623581    -0.86100
O1463       O  0.22661746  0.27155842  0.24228353    -0.72800
O1464       O  0.20427693  0.24090811  0.27804467    -0.85000
Zr1465     Zr  0.25892611  0.27210097  0.33266432     2.26400
Zr1466     Zr  0.26651261  0.28240277  0.24621445     2.06300
Zr1467     Zr  0.22006354  0.21873763  0.31922789     2.10000
Zr1468     Zr  0.28271518  0.22049969  0.28071157     1.78800
O1469       O  0.18025840  0.22097704  0.33810805    -0.93800
O1470       O  0.31735475  0.19658208  0.27094047    -0.41600
O1471       O  0.26004886  0.23054874  0.32511541    -0.78200
O1472       O  0.28254741  0.26157831  0.28897852    -0.96900
O1473       O  0.24413555  0.29370113  0.29076063    -0.90200
O1474       O  0.21964116  0.26021251  0.32847136    -0.93000
C1475       C  0.27093669  0.19498625  0.21612305     1.00700
C1476       C  0.19623817  0.18430755  0.25936642     1.13600
C1477       C  0.25216866  0.25895782  0.17408287     1.04400
O1478       O  0.30445068  0.28671166  0.22250490    -0.95200
O1479       O  0.29176393  0.30915554  0.27459707    -0.90900
O1480       O  0.28861347  0.30112731  0.32530615    -0.84100
C1481       C  0.29760074  0.31200039  0.30278035     1.11100
O1482       O  0.17168313  0.28298309  0.25311346    -0.97200
Zr1483     Zr  0.20484400  0.28230899  0.28737420     1.88900
O1484       O  0.23934327  0.30568864  0.35661873    -0.73800
O1485       O  0.25174757  0.31914992  0.22680964    -0.53100
O1486       O  0.20068139  0.31906477  0.26086147    -0.97800
O1487       O  0.16764268  0.27871964  0.31343789    -0.55000
O1488       O  0.20661497  0.31116457  0.32926310    -0.74300
C1489       C  0.22020006  0.31663235  0.35143738     0.98000
O1490       O  0.28993712  0.27293770  0.37038246    -0.63200
O1491       O  0.22925610  0.18130793  0.34190601    -0.58000
O1492       O  0.24753989  0.25370144  0.38007526    -0.94600
O1493       O  0.22509434  0.22175781  0.37500248    -0.93100
O1494       O  0.27851271  0.18298426  0.30511969    -0.93400
O1495       O  0.31964221  0.23129082  0.30373548    -0.92200
C1496       C  0.23613054  0.23668993  0.39129328     1.16800
H1497       H  0.24305869  0.19201149  0.27222449     0.32800
H1498       H  0.29832252  0.26651170  0.29199432     0.43600
H1499       H  0.21105135  0.26397131  0.34688273     0.37200
H1500       H  0.21965713  0.27883849  0.22470076     0.33600
H1501       H  0.31164038  0.18117356  0.26446201     0.25400
H1502       H  0.25285258  0.33010935  0.24428715     0.31400
H1503       H  0.19631532  0.33060884  0.27683495     0.37300
H1504       H  0.28247571  0.18587636  0.32675011     0.31700
H1505       H  0.21401384  0.17404009  0.34532968     0.30600
H1506       H  0.17275593  0.20674896  0.33030666     0.32300
H1507       H  0.16043431  0.29440001  0.31253069     0.31300
H1508       H  0.32861847  0.23881211  0.28733589     0.35300
H1509       H  0.28327291  0.28136133  0.38827620     0.28000
H1510       H  0.19897582  0.22406710  0.18272375     0.32200
H1511       H  0.17007135  0.26666657  0.24617024     0.35100
H1512       H  0.23643781  0.17195866  0.32519745     0.27700
H1513       H  0.29201369  0.25670497  0.37716244     0.40600
H1514       H  0.31493777  0.27667772  0.23461023     0.30600
H1515       H  0.32451579  0.20301829  0.25237001     0.38200
H1516       H  0.17152469  0.27664588  0.33520305     0.30100
H1517       H  0.26383944  0.32424728  0.21234368     0.30200
H1518       H  0.19218896  0.24845954  0.19668041     0.30400
Zr1519     Zr  0.25874168  0.25683457  0.98419270     2.17500
O1520       O  0.29335349  0.26191437  0.45223023    -0.51900
O1521       O  0.23566201  0.28874331  0.96360738    -0.75100
O1522       O  0.24803803  0.25228738  0.43719337    -0.81900
O1523       O  0.28046000  0.30534134  0.03136248    -0.83700
O1524       O  0.22696411  0.21941296  0.44090077    -0.79300
O1525       O  0.28227880  0.28983919  0.98393954    -0.90900
O1526       O  0.20168909  0.27415610  0.97576290    -0.76900
O1527       O  0.21949769  0.24483145  0.98792555    -0.86400
O1528       O  0.24196021  0.28015106  0.02408249    -0.86100
O1529       O  0.26235048  0.21608005  0.99306560    -0.72800
O1530       O  0.28340257  0.24957339  0.02717160    -0.85000
Zr1531     Zr  0.22881306  0.22013819  0.08282449     2.26400
Zr1532     Zr  0.22288189  0.20439228  0.99670794     2.06300
Zr1533     Zr  0.26659203  0.27381911  0.06661741     2.10000
Zr1534     Zr  0.20343198  0.26693940  0.02961820     1.78800
O1535       O  0.30704461  0.27698864  0.08186928    -0.93800
O1536       O  0.16527420  0.28419087  0.02042290    -0.41600
O1537       O  0.22695940  0.26112063  0.07370773    -0.78200
O1538       O  0.20522917  0.22642775  0.03837473    -0.96900
O1539       O  0.24472274  0.19656531  0.04243339    -0.90200
O1540       O  0.26790186  0.23283416  0.07813954    -0.93000
C1541       C  0.21358710  0.29076710  0.96560002     1.00700
C1542       C  0.28466509  0.30676646  0.00223453     1.13600
C1543       C  0.23673179  0.23562835  0.42527559     1.04400
O1544       O  0.18621138  0.19608642  0.97181379    -0.95200
O1545       O  0.19865925  0.17864835  0.02645498    -0.90900
O1546       O  0.20064892  0.18941728  0.07668702    -0.84100
C1547       C  0.19262539  0.17705769  0.05460941     1.11100
O1548       O  0.31946609  0.20836062  0.00931330    -0.97200
Zr1549     Zr  0.28369160  0.20862538  0.03914898     1.88900
O1550       O  0.24708537  0.18787364  0.10871348    -0.73800
O1551       O  0.23834498  0.16701261  0.97906353    -0.53100
O1552       O  0.29273314  0.17233897  0.01229059    -0.97800
O1553       O  0.31663753  0.21152618  0.07361492    -0.55000
O1554       O  0.27861346  0.17974001  0.07954004    -0.74300
C1555       C  0.26517616  0.17556411  0.10234146     0.98000
O1556       O  0.19736932  0.22489765  0.11996400    -0.63200
O1557       O  0.25677867  0.31130907  0.08989209    -0.58000
O1558       O  0.24089498  0.23986496  0.12941791    -0.94600
O1559       O  0.26327974  0.27167392  0.12295448    -0.93100
O1560       O  0.20526886  0.30652156  0.04954117    -0.93400
O1561       O  0.16943706  0.25592851  0.05913769    -0.92200
C1562       C  0.25249783  0.25715772  0.13996854     1.16800
H1563       H  0.24123589  0.29638232  0.01911098     0.32800
H1564       H  0.18954716  0.22122590  0.04135548     0.43600
H1565       H  0.27651340  0.23012432  0.09663932     0.37200
H1566       H  0.26990427  0.20838452  0.97591163     0.33600
H1567       H  0.16827600  0.30012341  0.01334860     0.25400
H1568       H  0.24198058  0.15846693  0.99793851     0.31400
H1569       H  0.29802440  0.16153507  0.02830892     0.37300
H1570       H  0.19971514  0.30541416  0.07085970     0.31700
H1571       H  0.27107276  0.32056186  0.08802455     0.30600
H1572       H  0.31127228  0.29312992  0.07691223     0.32300
H1573       H  0.32536017  0.22515762  0.06664050     0.31300
H1574       H  0.17345308  0.25991573  0.08047419     0.35300
H1575       H  0.19654213  0.24178687  0.12450962     0.28000
H1576       H  0.29278967  0.24614084  0.44313898     0.32200
H1577       H  0.31920220  0.22329977  0.99840891     0.35100
H1578       H  0.24577522  0.31861483  0.07550269     0.27700
H1579       H  0.18289511  0.22184343  0.10866943     0.40600
H1580       H  0.17579196  0.20908459  0.97812087     0.30600
H1581       H  0.15924179  0.27589642  0.00229101     0.38200
H1582       H  0.32673937  0.19798630  0.06836743     0.30100
H1583       H  0.22471154  0.15894968  0.97048863     0.30200
H1584       H  0.30690120  0.26122673  0.46603198     0.30400
C1585       C  0.18452223  0.36367553  0.39451257    -0.20900
C1586       C  0.20156560  0.37709691  0.40894719    -0.07500
C1587       C  0.22484710  0.36914077  0.40709413     0.13400
C1588       C  0.23048786  0.34923150  0.38877823    -0.21000
C1589       C  0.21337391  0.33687359  0.37224283    -0.07500
C1590       C  0.18988556  0.34409614  0.37629768     0.13400
C1591       C  0.16994578  0.33135616  0.36187880    -0.24300
H1592       H  0.16650210  0.36893796  0.39703196     0.14700
H1593       H  0.24847934  0.34369780  0.38677596     0.14700
C1594       C  0.24367301  0.38179480  0.42379843    -0.24300
H1595       H  0.17046359  0.33331326  0.33675533     0.04900
H1596       H  0.17079345  0.31272343  0.36793779     0.08100
H1597       H  0.15284645  0.33827809  0.36981532     0.08100
H1598       H  0.24009922  0.38146141  0.44868349     0.08100
H1599       H  0.24427878  0.40009958  0.41620611     0.08100
H1600       H  0.26099054  0.37361097  0.41968407     0.04900
C1601       C  0.17036928  0.34717854  0.46797135    -0.20900
C1602       C  0.17903803  0.35598208  0.98130092    -0.07500
C1603       C  0.20236867  0.35180590  0.99095812     0.13400
C1604       C  0.21394147  0.33143866  0.98163781    -0.21000
C1605       C  0.20274335  0.31410611  0.96504707    -0.07500
C1606       C  0.18270845  0.32683580  0.45994907     0.13400
C1607       C  0.17172391  0.30916901  0.43913882    -0.24300
H1608       H  0.15300571  0.34968066  0.45910063     0.14700
H1609       H  0.23153083  0.32830500  0.98936162     0.14700
C1610       C  0.21555324  0.36797474  0.01180227    -0.24300
H1611       H  0.15501162  0.31565998  0.42975265     0.04900
H1612       H  0.16821208  0.29295580  0.45159696     0.08100
H1613       H  0.18362047  0.30513151  0.41977540     0.08100
H1614       H  0.20614357  0.37014614  0.03380796     0.08100
H1615       H  0.21802901  0.38499649  0.00087416     0.08100
H1616       H  0.23316758  0.36114615  0.01724971     0.04900
C1617       C  0.35009967  0.33962119  0.34029995    -0.20900
C1618       C  0.34697143  0.36310354  0.33283015    -0.07500
C1619       C  0.32899680  0.36911070  0.31210831     0.13400
C1620       C  0.31407861  0.35176824  0.30092818    -0.21000
C1621       C  0.31625121  0.32865976  0.31036988    -0.07500
C1622       C  0.33510179  0.32239729  0.32940661     0.13400
C1623       C  0.34006910  0.29768682  0.33870106    -0.24300
H1624       H  0.36384027  0.33469502  0.35586741     0.14700
H1625       H  0.29983726  0.35651710  0.28606114     0.14700
C1626       C  0.32520207  0.39373777  0.30183149    -0.24300
H1627       H  0.35827982  0.29296219  0.33266635     0.04900
H1628       H  0.32886617  0.28489104  0.32710638     0.08100
H1629       H  0.33774608  0.29609870  0.36373948     0.08100
H1630       H  0.34165350  0.40071948  0.29267300     0.08100
H1631       H  0.31894579  0.40473618  0.32116832     0.08100
H1632       H  0.31193447  0.39484008  0.28357687     0.04900
C1633       C  0.26026333  0.48065431  0.42848805    -0.20900
C1634       C  0.25223754  0.47758117  0.45840833    -0.07500
C1635       C  0.26871414  0.47422141  0.48188273     0.13400
C1636       C  0.29257599  0.47276592  0.47470268    -0.21000
C1637       C  0.30049422  0.47376304  0.44441874    -0.07500
C1638       C  0.28406268  0.47850322  0.42111573     0.13400
C1639       C  0.29140357  0.48106561  0.38829359    -0.24300
H1640       H  0.24771370  0.48325862  0.41044690     0.14700
H1641       H  0.30496456  0.46918548  0.49263708     0.14700
C1642       C  0.26654811  0.44580580  0.02596780    -0.24300
H1643       H  0.27677544  0.48701468  0.37378964     0.04900
H1644       H  0.29755344  0.46414539  0.37886395     0.08100
H1645       H  0.30542002  0.49403363  0.38664828     0.08100
H1646       H  0.25525947  0.43066484  0.02191962     0.08100
H1647       H  0.25660980  0.45972676  0.03818539     0.08100
H1648       H  0.28089127  0.43995942  0.04101553     0.04900
C1649       C  0.32257621  0.34838358  0.45190733    -0.20900
C1650       C  0.31448886  0.37106651  0.45751678    -0.07500
C1651       C  0.30911310  0.36749510  0.99226078     0.13400
C1652       C  0.29887675  0.34792533  0.00544119    -0.21000
C1653       C  0.29235252  0.32886091  0.98737713    -0.07500
C1654       C  0.31706081  0.33000808  0.47128806     0.13400
C1655       C  0.32989768  0.30730829  0.46603044    -0.24300
H1656       H  0.33569238  0.34544578  0.43440206     0.14700
H1657       H  0.29712207  0.34716676  0.03002461     0.14700
C1658       C  0.31687846  0.38687422  0.01296944    -0.24300
H1659       H  0.34887026  0.31044164  0.46536963     0.04900
H1660       H  0.32457448  0.29957523  0.44387564     0.08100
H1661       H  0.32691415  0.29471581  0.48451425     0.08100
H1662       H  0.32431780  0.40144246  0.99999935     0.08100
H1663       H  0.33016256  0.38026003  0.02906886     0.08100
H1664       H  0.30176975  0.39381472  0.02616041     0.04900
C1665       C  0.14775815  0.15327711  0.21890915    -0.20900
C1666       C  0.15669734  0.13062465  0.21427445    -0.07500
C1667       C  0.17877071  0.12515300  0.22663043     0.13400
C1668       C  0.19100387  0.14242510  0.24333234    -0.21000
C1669       C  0.18145833  0.16488509  0.24842115    -0.07500
C1670       C  0.15965236  0.17023566  0.23555380     0.13400
C1671       C  0.14884681  0.19414499  0.23901173    -0.24300
H1672       H  0.13086272  0.15771576  0.20965538     0.14700
H1673       H  0.20824162  0.13855740  0.25184199     0.14700
C1674       C  0.18920352  0.10123433  0.22263809    -0.24300
H1675       H  0.13145709  0.19522013  0.22823800     0.04900
H1676       H  0.15995127  0.20718283  0.22793336     0.08100
H1677       H  0.14683624  0.19863573  0.26357915     0.08100
H1678       H  0.19122516  0.09710273  0.19798238     0.08100
H1679       H  0.17772312  0.08823740  0.23319377     0.08100
H1680       H  0.20655555  0.09986150  0.23347243     0.04900
C1681       C  0.15719056  0.12275945  0.06552222    -0.20900
C1682       C  0.13812666  0.13186748  0.08206664    -0.07500
C1683       C  0.13633399  0.15611888  0.08723949     0.13400
C1684       C  0.15443590  0.17032961  0.07769398    -0.21000
C1685       C  0.17383186  0.16108463  0.06219559    -0.07500
C1686       C  0.17486931  0.13718235  0.05494478     0.13400
C1687       C  0.19497438  0.12673944  0.03724590    -0.24300
H1688       H  0.15849676  0.10417993  0.06149984     0.14700
H1689       H  0.15355077  0.18883304  0.08251619     0.14700
C1690       C  0.11594172  0.16709308  0.10381236    -0.24300
H1691       H  0.19333478  0.10764033  0.03450115     0.04900
H1692       H  0.21148534  0.13027102  0.04930220     0.08100
H1693       H  0.19563182  0.13433361  0.01411501     0.08100
H1694       H  0.11419916  0.15955013  0.12688629     0.08100
H1695       H  0.09988648  0.16412423  0.09053388     0.08100
H1696       H  0.11787792  0.18616217  0.10657653     0.04900
C1697       C  0.31421404  0.14532922  0.20844591    -0.20900
C1698       C  0.30376688  0.12893531  0.22758128    -0.07500
C1699       C  0.28108955  0.13389372  0.23936859     0.13400
C1700       C  0.27004535  0.15475009  0.23188446    -0.21000
C1701       C  0.28121294  0.17156097  0.21475269    -0.07500
C1702       C  0.30335023  0.16674188  0.20231582     0.13400
C1703       C  0.31538504  0.18405470  0.18247472    -0.24300
H1704       H  0.33111959  0.14158427  0.19851493     0.14700
H1705       H  0.25296627  0.15861497  0.24125190     0.14700
C1706       C  0.26808341  0.11798397  0.26037326    -0.24300
H1707       H  0.33189503  0.17687046  0.17292032     0.04900
H1708       H  0.31950688  0.19989518  0.19586162     0.08100
H1709       H  0.30391452  0.18888864  0.16322350     0.08100
H1710       H  0.27831597  0.11496150  0.28138132     0.08100
H1711       H  0.26436048  0.10137121  0.24853216     0.08100
H1712       H  0.25107374  0.12548712  0.26774493     0.04900
C1713       C  0.18057265  0.03447307  0.23387807    -0.20900
C1714       C  0.17136662  0.02408896  0.20751442    -0.07500
C1715       C  0.18620086  0.00991506  0.18921056     0.13400
C1716       C  0.20998420  0.00767841  0.19647157    -0.21000
C1717       C  0.21972849  0.01969172  0.22134462    -0.07500
C1718       C  0.20446847  0.03254353  0.24099206     0.13400
C1719       C  0.21317109  0.04435502  0.26948610    -0.24300
H1720       H  0.16929707  0.04537269  0.24797307     0.14700
H1721       H  0.22129735  0.99757934  0.18144668     0.14700
C1722       C  0.17696794  0.99746113  0.16152394    -0.24300
H1723       H  0.19866886  0.05168055  0.28349718     0.04900
H1724       H  0.22466381  0.05891806  0.26353500     0.08100
H1725       H  0.22279213  0.03162360  0.28365317     0.08100
H1726       H  0.17036762  0.01018363  0.14472509     0.08100
H1727       H  0.16262477  0.98593948  0.16843502     0.08100
H1728       H  0.19059046  0.98659020  0.15013566     0.04900
C1729       C  0.25277380  0.14521999  0.14018558    -0.20900
C1730       C  0.27054514  0.15498062  0.12212907    -0.07500
C1731       C  0.29296808  0.14451861  0.12313253     0.13400
C1732       C  0.29640825  0.12414552  0.13980056    -0.21000
C1733       C  0.27837329  0.11348134  0.15587394    -0.07500
C1734       C  0.25646170  0.12464695  0.15703576     0.13400
C1735       C  0.23684752  0.11447339  0.17492758    -0.24300
H1736       H  0.23565921  0.15324836  0.14038613     0.14700
H1737       H  0.31350620  0.11602306  0.13973248     0.14700
C1738       C  0.31369448  0.15447781  0.10698056    -0.24300
H1739       H  0.22065698  0.12500326  0.17277426     0.04900
H1740       H  0.24151413  0.11389158  0.19942535     0.08100
H1741       H  0.23336343  0.09659910  0.16655938     0.08100
H1742       H  0.31584374  0.17291983  0.11378569     0.08100
H1743       H  0.31154696  0.15296698  0.08192952     0.08100
H1744       H  0.33005391  0.14512841  0.11275232     0.04900
C1745       C  0.02896070  0.40419424  0.39646967    -0.20900
C1746       C  0.01006113  0.41979066  0.39497147    -0.07500
C1747       C  0.00901196  0.43911415  0.41526089     0.13400
C1748       C  0.02711557  0.44245145  0.43572099    -0.21000
C1749       C  0.04602688  0.42697782  0.43685753    -0.07500
C1750       C  0.04685571  0.40739247  0.41726417     0.13400
C1751       C  0.06687257  0.39024921  0.41708430    -0.24300
H1752       H  0.02981168  0.38930131  0.38114378     0.14700
H1753       H  0.02693172  0.45781054  0.45019389     0.14700
C1754       C  0.98904811  0.45622758  0.41621282    -0.24300
H1755       H  0.06468877  0.37636056  0.39959339     0.04900
H1756       H  0.08334907  0.39916376  0.41194751     0.08100
H1757       H  0.06796347  0.38175910  0.43960297     0.08100
H1758       H  0.97272868  0.44695889  0.42116618     0.08100
H1759       H  0.98804181  0.46546738  0.39419765     0.08100
H1760       H  0.99113256  0.46965810  0.43434778     0.04900
C1761       C  0.84570836  0.28177223  0.43834921    -0.20900
C1762       C  0.82858698  0.29299691  0.45658542    -0.07500
C1763       C  0.82765337  0.31751499  0.45624848     0.13400
C1764       C  0.84317010  0.32994807  0.43755258    -0.21000
C1765       C  0.85935574  0.31867282  0.41783966    -0.07500
C1766       C  0.86071573  0.29412327  0.41875026     0.13400
C1767       C  0.87807175  0.28085097  0.39932249    -0.24300
H1768       H  0.84690313  0.26305567  0.43882656     0.14700
H1769       H  0.84203152  0.34874362  0.43752539     0.14700
C1770       C  0.80952752  0.33057254  0.47468009    -0.24300
H1771       H  0.87751456  0.26190569  0.40360701     0.04900
H1772       H  0.89588284  0.28685831  0.40442180     0.08100
H1773       H  0.87427274  0.28358681  0.37482357     0.08100
H1774       H  0.81165706  0.32656096  0.49922338     0.08100
H1775       H  0.79192090  0.32538700  0.46725992     0.08100
H1776       H  0.81093299  0.34964409  0.47192164     0.04900
C1777       C  0.83159153  0.32126931  0.32322354    -0.20900
C1778       C  0.82740953  0.34433272  0.31451118    -0.07500
C1779       C  0.80444056  0.35240464  0.31069927     0.13400
C1780       C  0.78646543  0.33649096  0.31290756    -0.21000
C1781       C  0.79110485  0.31254535  0.31642442    -0.07500
C1782       C  0.81377779  0.30512302  0.32406522     0.13400
C1783       C  0.81986597  0.28019692  0.33102119    -0.24300
H1784       H  0.84916909  0.31551600  0.32791526     0.14700
H1785       H  0.76888011  0.34238965  0.30831284     0.14700
C1786       C  0.79882567  0.37708507  0.30189499    -0.24300
H1787       H  0.83834778  0.27806001  0.33767972     0.04900
H1788       H  0.81714903  0.26909804  0.31058074     0.08100
H1789       H  0.80904412  0.27411952  0.35026147     0.08100
H1790       H  0.80813571  0.38142317  0.28052297     0.08100
H1791       H  0.80396860  0.38918664  0.32044311     0.08100
H1792       H  0.77996301  0.37978006  0.29787093     0.04900
C1793       C  0.96734981  0.12137722  0.17844268    -0.20900
C1794       C  0.98392784  0.13306601  0.19649075    -0.07500
C1795       C  0.99866038  0.14902920  0.18161002     0.13400
C1796       C  0.99992501  0.14814849  0.14948246    -0.21000
C1797       C  0.99057883  0.12883919  0.13437104    -0.07500
C1798       C  0.96968489  0.12079057  0.14661536     0.13400
C1799       C  0.95305706  0.10752878  0.12700823    -0.24300
H1800       H  0.95336820  0.11194380  0.18902189     0.14700
H1801       H  0.01283918  0.15834420  0.13784332     0.14700
C1802       C  0.01345337  0.16605645  0.19871980    -0.24300
H1803       H  0.93815880  0.10115379  0.14054839     0.04900
H1804       H  0.96204546  0.09240023  0.11612410     0.08100
H1805       H  0.94621205  0.11906729  0.10894581     0.08100
H1806       H  0.02525478  0.15677257  0.21447352     0.08100
H1807       H  0.00216501  0.17838866  0.21177000     0.08100
H1808       H  0.02429123  0.17637784  0.18301229     0.04900
C1809       C  0.85506085  0.19018091  0.39308941    -0.20900
C1810       C  0.85692681  0.16603978  0.39813627    -0.07500
C1811       C  0.83698223  0.15396753  0.40724880     0.13400
C1812       C  0.81637465  0.16644062  0.41276585    -0.21000
C1813       C  0.81494227  0.19077432  0.40975057    -0.07500
C1814       C  0.83410055  0.20251402  0.39766364     0.13400
C1815       C  0.83253470  0.22774843  0.38927931    -0.24300
H1816       H  0.86992663  0.19944893  0.38466253     0.14700
H1817       H  0.80139478  0.15713960  0.42097243     0.14700
C1818       C  0.83736124  0.12817075  0.41261734    -0.24300
H1819       H  0.84916369  0.23413034  0.37987813     0.04900
H1820       H  0.82788143  0.23837757  0.40956481     0.08100
H1821       H  0.81898185  0.23015803  0.37162103     0.08100
H1822       H  0.85140981  0.12363231  0.42883708     0.08100
H1823       H  0.84005071  0.11868460  0.39076476     0.08100
H1824       H  0.82071198  0.12214256  0.42239716     0.04900
C1825       C  0.96248212  0.24592226  0.30786890    -0.20900
C1826       C  0.96839464  0.23499867  0.33525888    -0.07500
C1827       C  0.97125137  0.24888141  0.36187923     0.13400
C1828       C  0.96623559  0.27291184  0.36089534    -0.21000
C1829       C  0.95816163  0.28334157  0.33407501    -0.07500
C1830       C  0.95726888  0.26983622  0.30698423     0.13400
C1831       C  0.95076418  0.28059872  0.27703575    -0.24300
H1832       H  0.96038359  0.23542702  0.28741053     0.14700
H1833       H  0.96756222  0.28337811  0.38149971     0.14700
C1834       C  0.97961250  0.23845664  0.39132025    -0.24300
H1835       H  0.95158326  0.26773739  0.25798497     0.04900
H1836       H  0.96288790  0.29484069  0.27177397     0.08100
H1837       H  0.93280581  0.28760537  0.27820724     0.08100
H1838       H  0.99649080  0.22934763  0.38741689     0.08100
H1839       H  0.96682223  0.22602204  0.40022178     0.08100
H1840       H  0.98216885  0.25196182  0.40922893     0.04900
C1841       C  0.85339988  0.23572383  0.27104267    -0.20900
C1842       C  0.83386326  0.22174793  0.27537838    -0.07500
C1843       C  0.83549197  0.20324212  0.29648168     0.13400
C1844       C  0.85606512  0.19943637  0.31267489    -0.21000
C1845       C  0.87598796  0.21232756  0.30709209    -0.07500
C1846       C  0.87457383  0.23092638  0.28622049     0.13400
C1847       C  0.89526670  0.24599877  0.28056903    -0.24300
H1848       H  0.85201034  0.25057251  0.25617463     0.14700
H1849       H  0.85704251  0.18479471  0.32791529     0.14700
C1850       C  0.81613522  0.18634133  0.30183870    -0.24300
H1851       H  0.89097797  0.26050965  0.26501572     0.04900
H1852       H  0.90959488  0.23561808  0.27001442     0.08100
H1853       H  0.90132325  0.25353990  0.30250897     0.08100
H1854       H  0.80096616  0.18918132  0.28685530     0.08100
H1855       H  0.81042307  0.18754240  0.32603015     0.08100
H1856       H  0.82257621  0.16838383  0.29717892     0.04900
C1857       C  0.44225911  0.06713623  0.18992398    -0.20900
C1858       C  0.43416017  0.04455635  0.18415478    -0.07500
C1859       C  0.44931952  0.02821512  0.16976841     0.13400
C1860       C  0.46992164  0.03606740  0.15673845    -0.21000
C1861       C  0.47604219  0.05965160  0.15808002    -0.07500
C1862       C  0.46292992  0.07496142  0.17711943     0.13400
C1863       C  0.46997637  0.09965135  0.18378644    -0.24300
H1864       H  0.43171361  0.07938757  0.20303463     0.14700
H1865       H  0.48059539  0.02375136  0.14390483     0.14700
C1866       C  0.44414591  0.00264596  0.16741191    -0.24300
H1867       H  0.45876910  0.10799415  0.20155762     0.04900
H1868       H  0.46831124  0.11034613  0.16301364     0.08100
H1869       H  0.48809544  0.09990479  0.19229909     0.08100
H1870       H  0.42948700  0.99966330  0.15163356     0.08100
H1871       H  0.44004815  0.99584837  0.19034206     0.08100
H1872       H  0.45922404  0.99243669  0.15840083     0.04900
C1873       C  0.67155621  0.15710724  0.14951895    -0.20900
C1874       C  0.66960882  0.18142099  0.14866528    -0.07500
C1875       C  0.65293618  0.19131640  0.12831636     0.13400
C1876       C  0.63767610  0.17675759  0.11210737    -0.21000
C1877       C  0.63830897  0.15261499  0.11547220    -0.07500
C1878       C  0.65640354  0.14265095  0.13327531     0.13400
C1879       C  0.66018759  0.11671759  0.13540189    -0.24300
H1880       H  0.68468900  0.14916241  0.16377688     0.14700
H1881       H  0.62427022  0.18441595  0.09798711     0.14700
C1882       C  0.65028123  0.21712834  0.12379247    -0.24300
H1883       H  0.67678325  0.11231768  0.14691905     0.04900
H1884       H  0.66088213  0.10886742  0.11216988     0.08100
H1885       H  0.64619995  0.10876213  0.14901533     0.08100
H1886       H  0.66675317  0.22437851  0.11510335     0.08100
H1887       H  0.64515401  0.22581944  0.14552579     0.08100
H1888       H  0.63658450  0.22123514  0.10693868     0.04900
C1889       C  0.66441658  0.14796957  0.01799031    -0.20900
C1890       C  0.65660872  0.17022530  0.50410708    -0.07500
C1891       C  0.63471966  0.17148942  0.48973895     0.13400
C1892       C  0.62077463  0.15193385  0.48927924    -0.21000
C1893       C  0.62782635  0.13115517  0.50296078    -0.07500
C1894       C  0.65067657  0.12812564  0.01791118     0.13400
C1895       C  0.65958086  0.10701539  0.03445204    -0.24300
H1896       H  0.68103190  0.14762443  0.02952060     0.14700
H1897       H  0.60401761  0.15297307  0.47823637     0.14700
C1898       C  0.62557708  0.19344458  0.47532909    -0.24300
H1899       H  0.67714307  0.10979847  0.04406645     0.04900
H1900       H  0.66083651  0.09195627  0.01849389     0.08100
H1901       H  0.64810075  0.10292658  0.05380539     0.08100
H1902       H  0.63590588  0.19757655  0.45476288     0.08100
H1903       H  0.62626843  0.20804116  0.49196345     0.08100
H1904       H  0.60725827  0.19171628  0.46793600     0.04900
C1905       C  0.51304896  0.38252291  0.46688204    -0.20900
C1906       C  0.51723602  0.36148284  0.96250809    -0.07500
C1907       C  0.50479605  0.34366498  0.94688638     0.13400
C1908       C  0.47370378  0.35985324  0.44604545    -0.21000
C1909       C  0.48278039  0.37813724  0.42931531    -0.07500
C1910       C  0.50377693  0.38826553  0.43843147     0.13400
C1911       C  0.51622538  0.40511512  0.41833825    -0.24300
H1912       H  0.53664379  0.39295577  0.95559251     0.14700
H1913       H  0.45816083  0.35132263  0.43811200     0.14700
C1914       C  0.49899511  0.32064109  0.96061372    -0.24300
H1915       H  0.53276140  0.41085085  0.42869159     0.04900
H1916       H  0.50530664  0.42070076  0.41428820     0.08100
H1917       H  0.52033392  0.39664411  0.39607017     0.08100
H1918       H  0.48679239  0.32329519  0.97999301     0.08100
H1919       H  0.51526687  0.31176032  0.96767066     0.08100
H1920       H  0.49031094  0.30890918  0.94407162     0.04900
C1921       C  0.59492020  0.29427192  0.20542388    -0.20900
C1922       C  0.59719204  0.31849418  0.20915263    -0.07500
C1923       C  0.61762702  0.32722746  0.22260795     0.13400
C1924       C  0.63597487  0.31177454  0.22900779    -0.21000
C1925       C  0.63456412  0.28812805  0.22136701    -0.07500
C1926       C  0.61370267  0.27912233  0.21020069     0.13400
C1927       C  0.61157684  0.25374727  0.20215759    -0.24300
H1928       H  0.57921030  0.28726833  0.19569827     0.14700
H1929       H  0.65196189  0.31834033  0.23855585     0.14700
C1930       C  0.62024920  0.35261719  0.23034164    -0.24300
H1931       H  0.59395052  0.24955881  0.19374614     0.04900
H1932       H  0.61518423  0.24305689  0.22255113     0.08100
H1933       H  0.62419657  0.24904513  0.18386855     0.08100
H1934       H  0.60533764  0.35868975  0.24458017     0.08100
H1935       H  0.62120422  0.36305565  0.20934727     0.08100
H1936       H  0.63640918  0.35583080  0.24336034     0.04900
C1937       C  0.51720860  0.23335190  0.11463573    -0.20900
C1938       C  0.52436857  0.24732862  0.09024627    -0.07500
C1939       C  0.53403716  0.23615259  0.06409349     0.13400
C1940       C  0.53596166  0.21175130  0.06293023    -0.21000
C1941       C  0.52931175  0.19770027  0.08750887    -0.07500
C1942       C  0.51959352  0.20887265  0.11373761     0.13400
C1943       C  0.51266451  0.19540967  0.14151135    -0.24300
H1944       H  0.51021645  0.24173655  0.13500177     0.14700
H1945       H  0.54337468  0.20360034  0.04267258     0.14700
C1946       C  0.54380073  0.24972999  0.03794305    -0.24300
H1947       H  0.50646304  0.20702307  0.16031926     0.04900
H1948       H  0.52780692  0.18532851  0.15007267     0.08100
H1949       H  0.49832455  0.18349392  0.13573674     0.08100
H1950       H  0.55706443  0.26197838  0.04641672     0.08100
H1951       H  0.52965118  0.25939564  0.02649932     0.08100
H1952       H  0.55226883  0.23825921  0.02053467     0.04900
C1953       C  0.65176919  0.28282488  0.09375076    -0.20900
C1954       C  0.65161872  0.26780346  0.06846419    -0.07500
C1955       C  0.63138631  0.25509969  0.06193791     0.13400
C1956       C  0.61127484  0.25918302  0.07935916    -0.21000
C1957       C  0.61072545  0.27566625  0.10319817    -0.07500
C1958       C  0.63177031  0.28639656  0.11180360     0.13400
C1959       C  0.63392174  0.30163393  0.13966311    -0.24300
H1960       H  0.66764043  0.29168911  0.09958727     0.14700
H1961       H  0.59528739  0.25081641  0.07274670     0.14700
C1962       C  0.62922486  0.24393546  0.53778592    -0.24300
H1963       H  0.64708131  0.29400763  0.15509619     0.04900
H1964       H  0.61759156  0.30313863  0.15261014     0.08100
H1965       H  0.63964014  0.31923509  0.13340042     0.08100
H1966       H  0.64192278  0.22936988  0.53981683     0.08100
H1967       H  0.63319875  0.25401199  0.51701458     0.08100
H1968       H  0.61170954  0.23638875  0.53502508     0.04900
C1969       C  0.01277095  0.49868717  0.02288295    -0.20900
C1970       C  0.00409821  0.52404998  0.53857652    -0.07500
C1971       C  0.02306685  0.53895199  0.54458654     0.13400
C1972       C  0.04646170  0.53075248  0.54084793    -0.21000
C1973       C  0.05169313  0.50778717  0.53119233    -0.07500
C1974       C  0.03578017  0.48994211  0.01870351     0.13400
C1975       C  0.03858803  0.46681238  0.00262238    -0.24300
H1976       H  0.99848353  0.48876815  0.01373483     0.14700
H1977       H  0.06063179  0.54273006  0.54376570     0.14700
C1978       C  0.01856878  0.56398305  0.55313674    -0.24300
H1979       H  0.02860735  0.45351043  0.01502899     0.04900
H1980       H  0.05686932  0.46065494  0.00147303     0.08100
H1981       H  0.04621318  0.46705186  0.49519134     0.08100
H1982       H  0.01246048  0.55456413  0.08404431     0.08100
H1983       H  0.00874367  0.57272118  0.53472012     0.08100
H1984       H  0.03497324  0.57350030  0.55679675     0.04900
C1985       C  0.91223597  0.50863738  0.39400303    -0.20900
C1986       C  0.91094125  0.49788429  0.42260212    -0.07500
C1987       C  0.89815334  0.47716784  0.42569822     0.13400
C1988       C  0.88736294  0.46782951  0.40006533    -0.21000
C1989       C  0.89108133  0.47710745  0.37109919    -0.07500
C1990       C  0.90251659  0.49842029  0.36815637     0.13400
C1991       C  0.90554272  0.51013912  0.33786961    -0.24300
H1992       H  0.92116846  0.52495911  0.39153824     0.14700
H1993       H  0.87868989  0.45133410  0.40211600     0.14700
C1994       C  0.89736555  0.46346882  0.45492115    -0.24300
H1995       H  0.89830046  0.52808368  0.33932577     0.04900
H1996       H  0.89638338  0.50094478  0.31919222     0.08100
H1997       H  0.92428624  0.51094932  0.33201121     0.08100
H1998       H  0.88764688  0.47299012  0.47304871     0.08100
H1999       H  0.91531003  0.45964505  0.46272588     0.08100
H2000       H  0.88844852  0.44665760  0.45177531     0.04900
C2001       C  0.79597369  0.66714639  0.44657359    -0.20900
C2002       C  0.80842240  0.68591676  0.43414677    -0.07500
C2003       C  0.83280047  0.68620527  0.43875484     0.13400
C2004       C  0.84383245  0.66780161  0.45430036    -0.21000
C2005       C  0.83150524  0.64876272  0.46553406    -0.07500
C2006       C  0.80727261  0.64845095  0.46145974     0.13400
C2007       C  0.79365496  0.62763550  0.47101343    -0.24300
H2008       H  0.77734601  0.66651342  0.44347688     0.14700
H2009       H  0.86255727  0.66779380  0.45667970     0.14700
C2010       C  0.84750772  0.70584422  0.42763878    -0.24300
H2011       H  0.77485174  0.62987686  0.46622211     0.04900
H2012       H  0.79594221  0.62477376  0.49580736     0.08100
H2013       H  0.80002612  0.61196404  0.45840130     0.08100
H2014       H  0.84082828  0.72256448  0.43724574     0.08100
H2015       H  0.84734224  0.70634292  0.40235530     0.08100
H2016       H  0.86589560  0.70381939  0.43475928     0.04900
C2017       C  0.83824497  0.68869490  0.06925228    -0.20900
C2018       C  0.82398164  0.68320561  0.09430886    -0.07500
C2019       C  0.83130611  0.66553771  0.11433220     0.13400
C2020       C  0.85187857  0.65323173  0.10777446    -0.21000
C2021       C  0.86502750  0.65738935  0.08124483    -0.07500
C2022       C  0.85860456  0.67608535  0.06243404     0.13400
C2023       C  0.87421316  0.68572006  0.53028735    -0.24300
H2024       H  0.83332340  0.70285443  0.05448819     0.14700
H2025       H  0.85696866  0.63912252  0.12259310     0.14700
C2026       C  0.81712880  0.65850909  0.14163788    -0.24300
H2027       H  0.86657927  0.70126025  0.51914995     0.04900
H2028       H  0.87302396  0.67093218  0.51394260     0.08100
H2029       H  0.89273657  0.68922713  0.53513395     0.08100
H2030       H  0.79932770  0.65389159  0.13435166     0.08100
H2031       H  0.81634069  0.67287077  0.15868533     0.08100
H2032       H  0.82480405  0.64316736  0.15318237     0.04900
C2033       C  0.53911160  0.49998639  0.40089977    -0.20900
C2034       C  0.55426640  0.48787169  0.42085633    -0.07500
C2035       C  0.54431031  0.46926120  0.43725090     0.13400
C2036       C  0.52025524  0.46443428  0.43491672    -0.21000
C2037       C  0.50470699  0.47660924  0.41560867    -0.07500
C2038       C  0.51484793  0.49454175  0.39795197     0.13400
C2039       C  0.49995897  0.50876456  0.37703224    -0.24300
H2040       H  0.54601402  0.51450327  0.38843823     0.14700
H2041       H  0.51347505  0.45078827  0.44902881     0.14700
C2042       C  0.55896992  0.45407844  0.45769940    -0.24300
H2043       H  0.51007284  0.52250061  0.36565921     0.04900
H2044       H  0.48568934  0.51728781  0.39028332     0.08100
H2045       H  0.49252500  0.49739034  0.35907301     0.08100
H2046       H  0.56473147  0.46395800  0.47807215     0.08100
H2047       H  0.57430562  0.44723707  0.44487967     0.08100
H2048       H  0.54917363  0.43898479  0.46621111     0.04900
C2049       C  0.59517209  0.48672760  0.08251166    -0.20900
C2050       C  0.61692688  0.48300529  0.06852641    -0.07500
C2051       C  0.62941251  0.46201911  0.07356269     0.13400
C2052       C  0.61830606  0.44410228  0.08842462    -0.21000
C2053       C  0.59537685  0.44682637  0.09795906    -0.07500
C2054       C  0.58440978  0.46871570  0.09799115     0.13400
C2055       C  0.56163490  0.47277252  0.11432805    -0.24300
H2056       H  0.61628568  0.49018420  0.58594901     0.14700
H2057       H  0.62660646  0.42710871  0.08960524     0.14700
C2058       C  0.65328383  0.45718962  0.06060013    -0.24300
H2059       H  0.55483829  0.49068748  0.11088804     0.04900
H2060       H  0.56420618  0.47016641  0.13913430     0.08100
H2061       H  0.54843980  0.46031651  0.10643031     0.08100
H2062       H  0.66573373  0.46966426  0.07045774     0.08100
H2063       H  0.65288196  0.45853829  0.03539886     0.08100
H2064       H  0.65973270  0.43947243  0.06612306     0.04900
C2065       C  0.66101205  0.65427957  0.40737231    -0.20900
C2066       C  0.66393866  0.63372289  0.39045957    -0.07500
C2067       C  0.68052065  0.63291411  0.36652458     0.13400
C2068       C  0.69544498  0.65163191  0.36246990    -0.21000
C2069       C  0.69454848  0.67109592  0.38201695    -0.07500
C2070       C  0.67632944  0.67284270  0.40390897     0.13400
C2071       C  0.67304737  0.69384864  0.42426808    -0.24300
H2072       H  0.64815369  0.65494260  0.42545084     0.14700
H2073       H  0.70852146  0.65053576  0.34463272     0.14700
C2074       C  0.68354027  0.61204400  0.34574569    -0.24300
H2075       H  0.65685028  0.69292636  0.43800673     0.04900
H2076       H  0.67203009  0.70981902  0.41037648     0.08100
H2077       H  0.68765928  0.69480495  0.44049478     0.08100
H2078       H  0.67057398  0.59842423  0.35022643     0.08100
H2079       H  0.70120044  0.60445221  0.34866928     0.08100
H2080       H  0.68144673  0.61743707  0.32167310     0.04900
C2081       C  0.76611771  0.51965202  0.48806987    -0.20900
C2082       C  0.75219123  0.53978283  0.48517230    -0.07500
C2083       C  0.76200090  0.56133114  0.49356724     0.13400
C2084       C  0.78520947  0.56237169  0.50307747    -0.21000
C2085       C  0.79965533  0.54254071  0.50479482    -0.07500
C2086       C  0.78963311  0.52070261  0.49756687     0.13400
C2087       C  0.80321422  0.49834406  0.50037601    -0.24300
H2088       H  0.75862796  0.50298766  0.48249821     0.14700
H2089       H  0.79238379  0.57635164  0.03212620     0.14700
C2090       C  0.74801971  0.58353701  0.49369430    -0.24300
H2091       H  0.79223840  0.48300263  0.49578832     0.04900
H2092       H  0.81015476  0.49680811  0.52385997     0.08100
H2093       H  0.81763313  0.49779919  0.48360029     0.08100
H2094       H  0.73208758  0.58157430  0.50771804     0.08100
H2095       H  0.74336841  0.58835123  0.47004249     0.08100
H2096       H  0.75650940  0.59401586  0.03020493     0.04900
C2097       C  0.71541264  0.62929406  0.03827469    -0.20900
C2098       C  0.69512069  0.63772741  0.49987748    -0.07500
C2099       C  0.68076434  0.65706616  0.50772016     0.13400
C2100       C  0.69067029  0.67710996  0.52052965    -0.21000
C2101       C  0.72459853  0.67021186  0.03527440    -0.07500
C2102       C  0.72154337  0.65009834  0.05283554     0.13400
C2103       C  0.72488790  0.65039756  0.08695056    -0.24300
H2104       H  0.71165748  0.61429680  0.05209112     0.14700
H2105       H  0.67945879  0.69167505  0.52678920     0.14700
C2106       C  0.65488673  0.65671015  0.50281861    -0.24300
H2107       H  0.72330746  0.63278383  0.09673515     0.04900
H2108       H  0.71160746  0.66175237  0.09813077     0.08100
H2109       H  0.74247294  0.65685254  0.09246636     0.08100
H2110       H  0.64675204  0.64369822  0.51773078     0.08100
H2111       H  0.65114103  0.65240332  0.47866620     0.08100
H2112       H  0.64661266  0.67380248  0.50823402     0.04900
C2113       C  0.94931564  0.98431104  0.12612800    -0.20900
C2114       C  0.93053893  0.00044210  0.12581152    -0.07500
C2115       C  0.93631084  0.02390843  0.11994872     0.13400
C2116       C  0.95982907  0.03075551  0.11739113    -0.21000
C2117       C  0.97881331  0.01512063  0.12016515    -0.07500
C2118       C  0.97308960  0.99130438  0.12350574     0.13400
C2119       C  0.99207764  0.97343690  0.12651988    -0.24300
H2120       H  0.94550170  0.96632147  0.13052774     0.14700
H2121       H  0.96340952  0.04904087  0.11471788     0.14700
C2122       C  0.91791445  0.04260174  0.11718762    -0.24300
H2123       H  0.98508108  0.95581953  0.13027801     0.04900
H2124       H  0.00309930  0.97812630  0.14617026     0.08100
H2125       H  0.00285856  0.97295666  0.10548058     0.08100
H2126       H  0.91992312  0.05554925  0.13590629     0.08100
H2127       H  0.90005959  0.03569388  0.11803603     0.08100
H2128       H  0.91992714  0.05147960  0.09500507     0.04900
C2129       C  0.83485173  0.08285275  0.22356601    -0.20900
C2130       C  0.84548370  0.07658847  0.19585821    -0.07500
C2131       C  0.86755033  0.08527502  0.19002892     0.13400
C2132       C  0.88193284  0.08932126  0.21492408    -0.21000
C2133       C  0.87324266  0.08788459  0.24504788    -0.07500
C2134       C  0.84877162  0.08711692  0.24920581     0.13400
C2135       C  0.83719548  0.08965655  0.27992476    -0.24300
H2136       H  0.81662354  0.07908951  0.22682718     0.14700
H2137       H  0.90007875  0.09272723  0.21061429     0.14700
C2138       C  0.87689312  0.08579865  0.15799421    -0.24300
H2139       H  0.81800916  0.08855973  0.27821478     0.04900
H2140       H  0.84116189  0.10689069  0.29002143     0.08100
H2141       H  0.84323899  0.07559991  0.29518467     0.08100
H2142       H  0.87633470  0.06822134  0.14742063     0.08100
H2143       H  0.89509786  0.09187389  0.15742926     0.08100
H2144       H  0.86611934  0.09787598  0.14427462     0.04900
C2145       C  0.79497975  0.87562926  0.33056283    -0.20900
C2146       C  0.77205390  0.86772802  0.32942990    -0.07500
C2147       C  0.75565059  0.88104116  0.31253850     0.13400
C2148       C  0.76277449  0.90074435  0.29605378    -0.21000
C2149       C  0.78596600  0.90795652  0.29584102    -0.07500
C2150       C  0.80212476  0.89540447  0.31412729     0.13400
C2151       C  0.82738700  0.90176996  0.31487224    -0.24300
H2152       H  0.80774540  0.86539139  0.34278462     0.14700
H2153       H  0.75022351  0.91022228  0.28249539     0.14700
C2154       C  0.73046123  0.87434508  0.31148630    -0.24300
H2155       H  0.83774343  0.88961682  0.32904285     0.04900
H2156       H  0.82928428  0.91941746  0.32483891     0.08100
H2157       H  0.83469936  0.90122480  0.29140453     0.08100
H2158       H  0.72341245  0.87331688  0.33502805     0.08100
H2159       H  0.72857689  0.85733470  0.29983434     0.08100
H2160       H  0.71979119  0.88719580  0.29881554     0.04900
C2161       C  0.79403226  0.86245280  0.23597628    -0.20900
C2162       C  0.81707057  0.86609456  0.22645315    -0.07500
C2163       C  0.83053479  0.84691977  0.21649299     0.13400
C2164       C  0.81921667  0.82616037  0.20963176    -0.21000
C2165       C  0.79476094  0.82487385  0.21105006    -0.07500
C2166       C  0.78249209  0.84200676  0.22814790     0.13400
C2167       C  0.75700292  0.84023462  0.23548282    -0.24300
H2168       H  0.78406097  0.87682528  0.24557683     0.14700
H2169       H  0.82914548  0.81213490  0.19896173     0.14700
C2170       C  0.85608199  0.84889619  0.20982718    -0.24300
H2171       H  0.75089328  0.85476766  0.25043583     0.04900
H2172       H  0.75347488  0.82378939  0.24740353     0.08100
H2173       H  0.74672725  0.84090032  0.21430968     0.08100
H2174       H  0.86522650  0.85481538  0.23069253     0.08100
H2175       H  0.85889658  0.86143761  0.19119520     0.08100
H2176       H  0.86388532  0.83197689  0.20254364     0.04900
C2177       C  0.43552585  0.96391101  0.24272352    -0.20900
C2178       C  0.42682050  0.98537198  0.25373857    -0.07500
C2179       C  0.44349397  0.00200998  0.26311272     0.13400
C2180       C  0.46787667  0.99691886  0.26052953    -0.21000
C2181       C  0.47642384  0.97584505  0.24756541    -0.07500
C2182       C  0.45956445  0.95916691  0.23897367     0.13400
C2183       C  0.46666684  0.93616913  0.22494562    -0.24300
H2184       H  0.42320330  0.95101347  0.23521715     0.14700
H2185       H  0.48026544  0.01002966  0.26703867     0.14700
C2186       C  0.43566796  0.02570480  0.27404604    -0.24300
H2187       H  0.47918558  0.92707931  0.24001260     0.04900
H2188       H  0.47461664  0.93889276  0.20227742     0.08100
H2189       H  0.45153957  0.92472418  0.22140473     0.08100
H2190       H  0.42470189  0.02407349  0.29476261     0.08100
H2191       H  0.42547907  0.03444049  0.25594973     0.08100
H2192       H  0.45061754  0.03686770  0.27983113     0.04900
C2193       C  0.58559134  0.96598674  0.07724580    -0.20900
C2194       C  0.56313238  0.96374300  0.08976136    -0.07500
C2195       C  0.54394992  0.96481064  0.06993439     0.13400
C2196       C  0.54761969  0.97378657  0.04055223    -0.21000
C2197       C  0.56864557  0.98524645  0.03485847    -0.07500
C2198       C  0.58836583  0.97538629  0.04827434     0.13400
C2199       C  0.61225953  0.97975060  0.03607124    -0.24300
H2200       H  0.60082029  0.96281213  0.09106744     0.14700
H2201       H  0.53276039  0.97782895  0.02655798     0.14700
C2202       C  0.51994756  0.95886618  0.08037085    -0.24300
H2203       H  0.62203463  0.96304977  0.03409764     0.04900
H2204       H  0.62163397  0.99159562  0.05176057     0.08100
H2205       H  0.61144420  0.98768627  0.01312291     0.08100
H2206       H  0.51440040  0.97071482  0.09922630     0.08100
H2207       H  0.51972250  0.94060619  0.08814119     0.08100
H2208       H  0.50732224  0.96058781  0.06163974     0.04900
C2209       C  0.65515808  0.85137467  0.25742102    -0.20900
C2210       C  0.64253122  0.86471421  0.27903109    -0.07500
C2211       C  0.64834626  0.86313470  0.31005854     0.13400
C2212       C  0.66635229  0.84806874  0.31887652    -0.21000
C2213       C  0.67922150  0.83468769  0.29741846    -0.07500
C2214       C  0.67379423  0.83674628  0.26619001     0.13400
C2215       C  0.68741040  0.82353552  0.24222111    -0.24300
H2216       H  0.65099349  0.85312595  0.23345971     0.14700
H2217       H  0.67039420  0.84666007  0.34292059     0.14700
C2218       C  0.63545690  0.87735383  0.33389583    -0.24300
H2219       H  0.68073210  0.82708051  0.21898896     0.04900
H2220       H  0.68632005  0.80460577  0.24638068     0.08100
H2221       H  0.70584295  0.82883771  0.24290985     0.08100
H2222       H  0.61671782  0.87312903  0.33325776     0.08100
H2223       H  0.63756491  0.89613687  0.32939753     0.08100
H2224       H  0.64197635  0.87385624  0.35722210     0.04900
C2225       C  0.69328288  0.99317650  0.21673045    -0.20900
C2226       C  0.67928465  0.98386068  0.19355744    -0.07500
C2227       C  0.69025816  0.97499631  0.16672452     0.13400
C2228       C  0.71473116  0.97485317  0.16436956    -0.21000
C2229       C  0.72857797  0.98313029  0.18825878    -0.07500
C2230       C  0.71768125  0.99286547  0.21445777     0.13400
C2231       C  0.73182226  0.00163498  0.24092159    -0.24300
H2232       H  0.68508945  0.99943536  0.23760863     0.14700
H2233       H  0.72314004  0.96728951  0.14437623     0.14700
C2234       C  0.67639265  0.96409841  0.14145234    -0.24300
H2235       H  0.72063511  0.00853036  0.25971724     0.04900
H2236       H  0.74324908  0.01581452  0.23330186     0.08100
H2237       H  0.74263461  0.98725629  0.25012787     0.08100
H2238       H  0.66354873  0.97686312  0.13262707     0.08100
H2239       H  0.66727585  0.94867913  0.15009063     0.08100
H2240       H  0.68763880  0.95825617  0.12213225     0.04900
C2241       C  0.67590569  0.89050057  0.13608284    -0.20900
C2242       C  0.67576704  0.89430591  0.16800455    -0.07500
C2243       C  0.69225092  0.88244219  0.18573481     0.13400
C2244       C  0.70557701  0.86459682  0.17195982    -0.21000
C2245       C  0.70280555  0.85799031  0.14093241    -0.07500
C2246       C  0.68865286  0.87215454  0.12241183     0.13400
C2247       C  0.68544313  0.86725709  0.08888011    -0.24300
H2248       H  0.66400667  0.90045567  0.12209183     0.14700
H2249       H  0.71723426  0.85478923  0.18624161     0.14700
C2250       C  0.69517435  0.88767289  0.21924565    -0.24300
H2251       H  0.67348581  0.88006512  0.07821965     0.04900
H2252       H  0.67789093  0.84979196  0.08550606     0.08100
H2253       H  0.70240731  0.86817397  0.07689664     0.08100
H2254       H  0.67863051  0.88528011  0.23155660     0.08100
H2255       H  0.70068779  0.90593221  0.22235729     0.08100
H2256       H  0.70844174  0.87617349  0.22983452     0.04900
C2257       C  0.95200353  0.49226903  0.26031107    -0.20900
C2258       C  0.96632167  0.47215888  0.25898648    -0.07500
C2259       C  0.99015186  0.47522659  0.25239181     0.13400
C2260       C  0.99905019  0.49784092  0.24821413    -0.21000
C2261       C  0.98500950  0.51801475  0.25117125    -0.07500
C2262       C  0.96101983  0.51496427  0.25690984     0.13400
C2263       C  0.94524718  0.53570110  0.26209477    -0.24300
H2264       H  0.93391532  0.49033815  0.26656156     0.14700
H2265       H  0.01754139  0.49989574  0.24473682     0.14700
C2266       C  0.00660013  0.45471077  0.25196691    -0.24300
H2267       H  0.92709391  0.53046483  0.26669469     0.04900
H2268       H  0.94527633  0.54682822  0.24159127     0.08100
H2269       H  0.95134668  0.54594220  0.28204493     0.08100
H2270       H  0.00115196  0.44204153  0.23421509     0.08100
H2271       H  0.00651985  0.44619410  0.27455757     0.08100
H2272       H  0.02467604  0.45994570  0.24687820     0.04900
C2273       C  0.96740307  0.61917944  0.42819452    -0.20900
C2274       C  0.98179295  0.60873081  0.45008258    -0.07500
C2275       C  0.00075440  0.59492340  0.44032067     0.13400
C2276       C  0.00275587  0.58903241  0.40945572    -0.21000
C2277       C  0.98626112  0.59662107  0.38789273    -0.07500
C2278       C  0.96855038  0.61243994  0.39743142     0.13400
C2279       C  0.95013324  0.62156987  0.37607939    -0.24300
H2280       H  0.95353898  0.63087158  0.43557527     0.14700
H2281       H  0.01731353  0.57807449  0.40247201     0.14700
C2282       C  0.01871073  0.58561308  0.46203366    -0.24300
H2283       H  0.93692390  0.63240843  0.38824624     0.04900
H2284       H  0.94106933  0.60688490  0.36492852     0.08100
H2285       H  0.95786380  0.63276404  0.35851774     0.08100
H2286       H  0.01785335  0.56637551  0.46267692     0.08100
H2287       H  0.01635459  0.59269159  0.48547510     0.08100
H2288       H  0.03625996  0.59064830  0.45416157     0.04900
C2289       C  0.12522584  0.54367285  0.32590895    -0.20900
C2290       C  0.10565383  0.53327469  0.31290115    -0.07500
C2291       C  0.09915847  0.51103186  0.32191350     0.13400
C2292       C  0.11000547  0.50125257  0.34697910    -0.21000
C2293       C  0.12764920  0.51284393  0.36304771    -0.07500
C2294       C  0.13634775  0.53373591  0.35113833     0.13400
C2295       C  0.15560381  0.54681213  0.36633894    -0.24300
H2296       H  0.13011533  0.56087416  0.31866084     0.14700
H2297       H  0.10280347  0.48542300  0.35554501     0.14700
C2298       C  0.07975964  0.49790932  0.30683613    -0.24300
H2299       H  0.15983959  0.56294971  0.35398024     0.04900
H2300       H  0.17152694  0.53576154  0.36673087     0.08100
H2301       H  0.15031543  0.55186935  0.38987857     0.08100
H2302       H  0.07258909  0.50705361  0.28675704     0.08100
H2303       H  0.06553306  0.49520158  0.32351579     0.08100
H2304       H  0.08641104  0.48071120  0.29879834     0.04900
C2305       C  0.09921934  0.70226190  0.36255080    -0.20900
C2306       C  0.09845559  0.69862773  0.33060084    -0.07500
C2307       C  0.11590009  0.70847916  0.31256807     0.13400
C2308       C  0.13472488  0.71912504  0.32686483    -0.21000
C2309       C  0.13719987  0.72007471  0.35904800    -0.07500
C2310       C  0.11833722  0.71267958  0.37701344     0.13400
C2311       C  0.11830986  0.71500166  0.41123960    -0.24300
H2312       H  0.08549042  0.69529825  0.37657726     0.14700
H2313       H  0.14837422  0.72541549  0.31224596     0.14700
C2314       C  0.11582417  0.70645017  0.27833600    -0.24300
H2315       H  0.10165410  0.70926984  0.42131448     0.04900
H2316       H  0.12073589  0.73346413  0.41789479     0.08100
H2317       H  0.13238263  0.70409936  0.42103025     0.08100
H2318       H  0.10009997  0.71522262  0.26919829     0.08100
H2319       H  0.11589740  0.68794643  0.27142920     0.08100
H2320       H  0.13136795  0.71443506  0.26798851     0.04900
C2321       C  0.14343404  0.65770874  0.24191961    -0.20900
C2322       C  0.12593327  0.65772757  0.21967192    -0.07500
C2323       C  0.12770692  0.67258472  0.19449320     0.13400
C2324       C  0.14667102  0.68738187  0.19251708    -0.21000
C2325       C  0.16350022  0.68829863  0.21548048    -0.07500
C2326       C  0.16208733  0.67302885  0.24028234     0.13400
C2327       C  0.17964604  0.67288078  0.26557627    -0.24300
H2328       H  0.14183521  0.64664672  0.26165404     0.14700
H2329       H  0.14878686  0.69773700  0.17221438     0.14700
C2330       C  0.11038099  0.67266052  0.16886815    -0.24300
H2331       H  0.17073019  0.67688808  0.28754972     0.04900
H2332       H  0.19337667  0.68590106  0.26224922     0.08100
H2333       H  0.18804726  0.65546602  0.26691988     0.08100
H2334       H  0.10210214  0.69012448  0.16727250     0.08100
H2335       H  0.09658428  0.65964468  0.17181556     0.08100
H2336       H  0.11947210  0.66852930  0.14705399     0.04900
C2337       C  0.98249959  0.98526138  0.30020467    -0.20900
C2338       C  0.99913392  0.97579316  0.32030832    -0.07500
C2339       C  0.00763078  0.99125098  0.34309570     0.13400
C2340       C  0.00010212  0.01525312  0.34407178    -0.21000
C2341       C  0.98441076  0.02494198  0.32243311    -0.07500
C2342       C  0.97527252  0.00888555  0.30065824     0.13400
C2343       C  0.95760294  0.01608126  0.27722211    -0.24300
H2344       H  0.97516748  0.97392307  0.28297854     0.14700
H2345       H  0.00719594  0.02668037  0.36134359     0.14700
C2346       C  0.02516792  0.98274525  0.36578220    -0.24300
H2347       H  0.95097976  0.00107154  0.26388546     0.04900
H2348       H  0.96581611  0.02781090  0.26069155     0.08100
H2349       H  0.94243656  0.02467862  0.28850573     0.08100
H2350       H  0.04086912  0.97601296  0.35365704     0.08100
H2351       H  0.01757006  0.96864056  0.37949791     0.08100
H2352       H  0.03052793  0.99683248  0.38164038     0.04900
C2353       C  0.02795707  0.98894820  0.21202443    -0.20900
C2354       C  0.03346434  0.00467045  0.23542739    -0.07500
C2355       C  0.04471899  0.99683399  0.26184733     0.13400
C2356       C  0.05290545  0.97393174  0.26252495    -0.21000
C2357       C  0.05036451  0.95922564  0.23705530    -0.07500
C2358       C  0.03773353  0.96671988  0.21145538     0.13400
C2359       C  0.03665511  0.95303855  0.18187394    -0.24300
H2360       H  0.01865154  0.99492224  0.19213174     0.14700
H2361       H  0.06188725  0.96772422  0.28257888     0.14700
C2362       C  0.04797028  0.01259239  0.28912466    -0.24300
H2363       H  0.04372470  0.96368187  0.16313412     0.04900
H2364       H  0.01847784  0.94881697  0.17640352     0.08100
H2365       H  0.04696050  0.93669872  0.18192947     0.08100
H2366       H  0.03088254  0.01973714  0.29644606     0.08100
H2367       H  0.05933942  0.02729384  0.28356519     0.08100
H2368       H  0.05584244  0.00318493  0.30856655     0.04900
C2369       C  0.93052297  0.94616281  0.26038254    -0.20900
C2370       C  0.92850452  0.94510655  0.22857057    -0.07500
C2371       C  0.93690555  0.92533780  0.21226651     0.13400
C2372       C  0.94493486  0.90615002  0.22837756    -0.21000
C2373       C  0.94683892  0.90718245  0.26001916    -0.07500
C2374       C  0.93980004  0.92733881  0.27636227     0.13400
C2375       C  0.94115090  0.92854984  0.31067595    -0.24300
H2376       H  0.92371151  0.96113966  0.27284879     0.14700
H2377       H  0.95148830  0.89098657  0.21607064     0.14700
C2378       C  0.93930399  0.92505948  0.17795472    -0.24300
H2379       H  0.93376944  0.94513518  0.31984270     0.04900
H2380       H  0.95947713  0.92723680  0.31818389     0.08100
H2381       H  0.93119327  0.91407207  0.32059242     0.08100
H2382       H  0.94981348  0.94009020  0.17095880     0.08100
H2383       H  0.92222100  0.92576716  0.16654935     0.08100
H2384       H  0.94838876  0.90908277  0.16955808     0.04900
C2385       C  0.14141308  0.81395051  0.28167980    -0.20900
C2386       C  0.13697332  0.83620821  0.29390866    -0.07500
C2387       C  0.15272586  0.84599610  0.31453991     0.13400
C2388       C  0.17172891  0.83259091  0.32422349    -0.21000
C2389       C  0.17500063  0.80924198  0.31457269    -0.07500
C2390       C  0.16018423  0.80028549  0.29160403     0.13400
C2391       C  0.16318917  0.77626415  0.27798309    -0.24300
H2392       H  0.12917966  0.80665644  0.26558014     0.14700
H2393       H  0.18317234  0.84009039  0.34108822     0.14700
C2394       C  0.14854089  0.86982658  0.32817478    -0.24300
H2395       H  0.15081410  0.77315913  0.25910384     0.04900
H2396       H  0.15987318  0.76297536  0.29547661     0.08100
H2397       H  0.18099670  0.77402653  0.26858946     0.08100
H2398       H  0.13165530  0.87034867  0.34048594     0.08100
H2399       H  0.14826505  0.88293100  0.30981139     0.08100
H2400       H  0.16231098  0.87464577  0.34462916     0.04900
C2401       C  0.01823104  0.75342243  0.31905818    -0.20900
C2402       C  0.00852743  0.76620381  0.29503263    -0.07500
C2403       C  0.99673373  0.75406854  0.27159421     0.13400
C2404       C  0.99581421  0.72956776  0.27214034    -0.21000
C2405       C  0.00626035  0.71677793  0.29562674    -0.07500
C2406       C  0.01724679  0.72897685  0.31961258     0.13400
C2407       C  0.02930084  0.71607458  0.34483971    -0.24300
H2408       H  0.02746380  0.76258216  0.33689733     0.14700
H2409       H  0.98808565  0.72025778  0.25320397     0.14700
C2410       C  0.98665059  0.76674728  0.24475776    -0.24300
H2411       H  0.03742730  0.72808161  0.36153115     0.04900
H2412       H  0.04315550  0.70464244  0.33514585     0.08100
H2413       H  0.01657970  0.70531497  0.35718228     0.08100
H2414       H  0.00046318  0.77658681  0.23305847     0.08100
H2415       H  0.97276276  0.77894293  0.25265600     0.08100
H2416       H  0.97894156  0.75461740  0.22786725     0.04900
C2417       C  0.10443102  0.77781598  0.21085831    -0.20900
C2418       C  0.09696195  0.79949243  0.20039315    -0.07500
C2419       C  0.10939693  0.80953893  0.17567392     0.13400
C2420       C  0.12868496  0.79772652  0.16252684    -0.21000
C2421       C  0.13654486  0.77643192  0.17375540    -0.07500
C2422       C  0.12383491  0.76623330  0.19786719     0.13400
C2423       C  0.13018494  0.74267249  0.20947644    -0.24300
H2424       H  0.09518468  0.76998915  0.22961984     0.14700
H2425       H  0.13858017  0.80585861  0.14458656     0.14700
C2426       C  0.10368144  0.83349136  0.16423841    -0.24300
H2427       H  0.11748454  0.73664867  0.22657625     0.04900
H2428       H  0.14745393  0.74288182  0.22034386     0.08100
H2429       H  0.13000632  0.73034343  0.19002365     0.08100
H2430       H  0.10398183  0.84619443  0.18345915     0.08100
H2431       H  0.08638455  0.83354170  0.15328445     0.08100
H2432       H  0.11639273  0.83928747  0.14689929     0.04900
C2433       C  0.50214749  0.84976674  0.15561883    -0.20900
C2434       C  0.48124793  0.86130928  0.14888102    -0.07500
C2435       C  0.46834913  0.87183391  0.17299918     0.13400
C2436       C  0.47954972  0.87622787  0.20062248    -0.21000
C2437       C  0.50281938  0.86972570  0.20436486    -0.07500
C2438       C  0.51273070  0.85323571  0.18392503     0.13400
C2439       C  0.53562824  0.84139343  0.19047490    -0.24300
H2440       H  0.51109695  0.83961989  0.13810973     0.14700
H2441       H  0.47109421  0.88711329  0.21771455     0.14700
C2442       C  0.44312176  0.87873958  0.17046206    -0.24300
H2443       H  0.54055806  0.82878254  0.17214270     0.04900
H2444       H  0.53428106  0.83177114  0.21218300     0.08100
H2445       H  0.54973605  0.85415250  0.19236542     0.08100
H2446       H  0.43515036  0.87285723  0.14883435     0.08100
H2447       H  0.44120854  0.89787479  0.17275499     0.08100
H2448       H  0.43320611  0.87053073  0.18913894     0.04900
C2449       C  0.33839626  0.95365069  0.10726902    -0.20900
C2450       C  0.33776742  0.94250076  0.13558471    -0.07500
C2451       C  0.34741859  0.92013039  0.13852357     0.13400
C2452       C  0.35989240  0.91049099  0.11405174    -0.21000
C2453       C  0.36310641  0.92290068  0.08702608    -0.07500
C2454       C  0.35130205  0.94421532  0.08283647     0.13400
C2455       C  0.35359302  0.95836688  0.05431604    -0.24300
H2456       H  0.33092176  0.97093518  0.10521332     0.14700
H2457       H  0.36854470  0.89383865  0.11676074     0.14700
C2458       C  0.34538414  0.90694901  0.16787097    -0.24300
H2459       H  0.33610717  0.96178769  0.04467035     0.04900
H2460       H  0.36429154  0.94967408  0.03641738     0.08100
H2461       H  0.36175976  0.97520933  0.06002204     0.08100
H2462       H  0.32676346  0.90460466  0.17349139     0.08100
H2463       H  0.35382787  0.91658420  0.18676109     0.08100
H2464       H  0.35375355  0.88949435  0.16606061     0.04900
C2465       C  0.48637186  0.97306432  0.00025724    -0.20900
C2466       C  0.47209589  0.96375833  0.02330562    -0.07500
C2467       C  0.46272090  0.97967838  0.04554041     0.13400
C2468       C  0.46922026  0.00315611  0.04541604    -0.21000
C2469       C  0.48504672  0.01183474  0.02420888    -0.07500
C2470       C  0.49305452  0.99673584  0.00062870     0.13400
C2471       C  0.50987113  0.00522576  0.97701287    -0.24300
H2472       H  0.49333937  0.96155965  0.98267575     0.14700
H2473       H  0.46968906  0.00638270  0.57684384     0.14700
C2474       C  0.45218387  0.96415521  0.58188388    -0.24300
H2475       H  0.51474157  0.99132023  0.96034751     0.04900
H2476       H  0.52597458  0.01131979  0.98817448     0.08100
H2477       H  0.50183262  0.01981902  0.96433055     0.08100
H2478       H  0.45583370  0.96082047  0.08651894     0.08100
H2479       H  0.43659289  0.95578405  0.57211103     0.08100
H2480       H  0.44593253  0.97885714  0.59647148     0.04900
C2481       C  0.34160182  0.79863634  0.02481322    -0.20900
C2482       C  0.36082558  0.78349180  0.02687763    -0.07500
C2483       C  0.35854398  0.76224119  0.04205259     0.13400
C2484       C  0.33735173  0.75709508  0.05595973    -0.21000
C2485       C  0.31892982  0.77344012  0.05706288    -0.07500
C2486       C  0.32099380  0.79440650  0.04092643     0.13400
C2487       C  0.30212766  0.81277723  0.04160635    -0.24300
H2488       H  0.34358816  0.81509099  0.01341294     0.14700
H2489       H  0.33577868  0.74083713  0.06796550     0.14700
C2490       C  0.37878820  0.74553143  0.04487478    -0.24300
H2491       H  0.30615543  0.82737455  0.02619788     0.04900
H2492       H  0.30028154  0.82002674  0.06505739     0.08100
H2493       H  0.28538752  0.80527394  0.03438739     0.08100
H2494       H  0.39268596  0.75353668  0.05867305     0.08100
H2495       H  0.38580666  0.74099883  0.02193176     0.08100
H2496       H  0.37368997  0.72921412  0.05621284     0.04900
C2497       C  0.34111096  0.83586153  0.44009704    -0.20900
C2498       C  0.36363187  0.83133860  0.42900427    -0.07500
C2499       C  0.36194195  0.81831773  0.90272833     0.13400
C2500       C  0.34869061  0.79883741  0.39960351    -0.21000
C2501       C  0.32720033  0.80122147  0.41449229    -0.07500
C2502       C  0.32288347  0.82089082  0.43339447     0.13400
C2503       C  0.29928070  0.82616642  0.44695031    -0.24300
H2504       H  0.33815289  0.84971959  0.45663704     0.14700
H2505       H  0.35159885  0.78462783  0.38353924     0.14700
C2506       C  0.38482847  0.81387155  0.88681621    -0.24300
H2507       H  0.29874476  0.84326065  0.45893299     0.04900
H2508       H  0.29471141  0.81288354  0.46391487     0.08100
H2509       H  0.28611044  0.82663826  0.42858743     0.08100
H2510       H  0.39201161  0.79673269  0.89369220     0.08100
H2511       H  0.39768826  0.82752620  0.89179157     0.08100
H2512       H  0.38216116  0.81374219  0.86174983     0.04900
C2513       C  0.50534245  0.49705162  0.06243483    -0.20900
C2514       C  0.48667030  0.50635155  0.07949018    -0.07500
C2515       C  0.47507653  0.49091525  0.09946069     0.13400
C2516       C  0.48219029  0.46714037  0.10133504    -0.21000
C2517       C  0.50019576  0.45742853  0.08304834    -0.07500
C2518       C  0.51209814  0.47325372  0.06351796     0.13400
C2519       C  0.53145052  0.46551373  0.04224598    -0.24300
H2520       H  0.51412405  0.50843989  0.04675720     0.14700
H2521       H  0.47285465  0.45588012  0.11658982     0.14700
C2522       C  0.45430201  0.49844979  0.11822596    -0.24300
H2523       H  0.53900473  0.48028348  0.02972657     0.04900
H2524       H  0.52465640  0.45320290  0.02497120     0.08100
H2525       H  0.54579840  0.45714517  0.05488741     0.08100
H2526       H  0.43933052  0.48732366  0.11248349     0.08100
H2527       H  0.44889474  0.51665458  0.11442049     0.08100
H2528       H  0.45832707  0.49649699  0.14280401     0.04900
C2529       C  0.50674574  0.55530847  0.93497911    -0.20900
C2530       C  0.50038322  0.57846848  0.94013227    -0.07500
C2531       C  0.51518290  0.59607576  0.92954300     0.13400
C2532       C  0.52508300  0.56963734  0.44070574    -0.21000
C2533       C  0.53649953  0.55248045  0.45784965    -0.07500
C2534       C  0.52296555  0.53469250  0.47137687     0.13400
C2535       C  0.53277458  0.51551911  0.49080473    -0.24300
H2536       H  0.49484898  0.54141484  0.93996442     0.14700
H2537       H  0.53496832  0.58245384  0.42848583     0.14700
C2538       C  0.50697397  0.62061287  0.92476096    -0.24300
H2539       H  0.53947421  0.52304695  0.51233286     0.04900
H2540       H  0.54653304  0.50593019  0.47849794     0.08100
H2541       H  0.51952377  0.50257883  0.49717167     0.08100
H2542       H  0.51207270  0.62618521  0.90154731     0.08100
H2543       H  0.51490158  0.63236940  0.94191294     0.08100
H2544       H  0.48779307  0.62198547  0.92597667     0.04900
C2545       C  0.41898096  0.45810440  0.05491828    -0.20900
C2546       C  0.43785287  0.45525943  0.03463040    -0.07500
C2547       C  0.44984149  0.47496008  0.02495359     0.13400
C2548       C  0.43902966  0.49639221  0.02889486    -0.21000
C2549       C  0.41809944  0.49921575  0.04462626    -0.07500
C2550       C  0.40881432  0.48012907  0.06009303     0.13400
C2551       C  0.38723653  0.48239976  0.07944459    -0.24300
H2552       H  0.41046671  0.44285474  0.06360120     0.14700
H2553       H  0.44633804  0.51095249  0.01796892     0.14700
C2554       C  0.46177563  0.46059901  0.55194346    -0.24300
H2555       H  0.38184160  0.46535630  0.08847945     0.04900
H2556       H  0.37271426  0.48952184  0.06567888     0.08100
H2557       H  0.39050237  0.49412820  0.09917181     0.08100
H2558       H  0.46262192  0.46390937  0.52712139     0.08100
H2559       H  0.46796707  0.44264447  0.55652293     0.08100
H2560       H  0.48151405  0.49055684  0.00826797     0.04900
C2561       C  0.30753004  0.64594077  0.11593156    -0.20900
C2562       C  0.31429913  0.66461915  0.13469510     0.02900
C2563       C  0.33479561  0.66243811  0.15221752     0.13400
C2564       C  0.34928050  0.64306204  0.14754370    -0.21000
C2565       C  0.34414774  0.62622144  0.12538129    -0.07500
C2566       C  0.32209402  0.62643557  0.11161002     0.13400
C2567       C  0.31448932  0.60674575  0.09125261    -0.24300
H2568       H  0.29115656  0.64692316  0.10389604     0.14700
H2569       H  0.36616157  0.64250866  0.15840223     0.14700
C2570       C  0.34263927  0.68114163  0.17403734    -0.24300
H2571       H  0.29667044  0.60968194  0.08239364     0.04900
H2572       H  0.31460045  0.59037505  0.10437440     0.08100
H2573       H  0.32640370  0.60467103  0.07153622     0.08100
H2574       H  0.33019988  0.68279633  0.19331290     0.08100
H2575       H  0.34394255  0.69794488  0.16202602     0.08100
H2576       H  0.35991675  0.67705487  0.18392574     0.04900
C2577       C  0.44433317  0.72015804  0.05580684    -0.20900
C2578       C  0.44791701  0.70505014  0.03082229    -0.07500
C2579       C  0.45379811  0.71472513  0.00219602     0.13400
C2580       C  0.45531007  0.73899719  0.99928093    -0.21000
C2581       C  0.45201668  0.75404426  0.02436389    -0.07500
C2582       C  0.44668393  0.74435916  0.05314167     0.13400
C2583       C  0.44263411  0.75939022  0.08107045    -0.24300
H2584       H  0.43977543  0.71293462  0.07771523     0.14700
H2585       H  0.45915811  0.74631532  0.97718992     0.14700
C2586       C  0.45789360  0.69974624  0.97428936    -0.24300
H2587       H  0.43729750  0.74905338  0.10107773     0.04900
H2588       H  0.42870696  0.77237025  0.07662113     0.08100
H2589       H  0.45886282  0.76839341  0.08723831     0.08100
H2590       H  0.44264126  0.68858684  0.97013935     0.08100
H2591       H  0.47370813  0.68889518  0.97755718     0.08100
H2592       H  0.46072604  0.71026941  0.95356749     0.04900
C2593       C  0.34982414  0.69179747  0.00213266    -0.20900
C2594       C  0.34598167  0.66877834  0.01055736    -0.07500
C2595       C  0.32384713  0.65909648  0.00551215     0.13400
C2596       C  0.30693276  0.67177771  0.98970322    -0.21000
C2597       C  0.31126390  0.69415047  0.97900995    -0.07500
C2598       C  0.33274571  0.70469608  0.98646669     0.13400
C2599       C  0.34169139  0.71489049  0.46846676    -0.24300
H2600       H  0.36679604  0.69915182  0.00595688     0.14700
H2601       H  0.29029960  0.66387074  0.98520797     0.14700
C2602       C  0.31760231  0.63518481  0.01607549    -0.24300
H2603       H  0.36049634  0.71709636  0.47286080     0.04900
H2604       H  0.32673462  0.74175395  0.98766609     0.08100
H2605       H  0.33929438  0.71345702  0.44340595     0.08100
H2606       H  0.33190016  0.62660542  0.02856402     0.08100
H2607       H  0.31309439  0.62410160  0.99614354     0.08100
H2608       H  0.30238907  0.63646598  0.03167071     0.04900
Zr2609     Zr  0.40445541  0.63212903  0.57816355     2.17500
O2610       O  0.39744255  0.66628821  0.61048615    -0.51900
O2611       O  0.37082377  0.64928580  0.55076897    -0.75100
O2612       O  0.42621211  0.66606832  0.56192158    -0.81900
O2613       O  0.36396986  0.59530942  0.62651554    -0.83700
O2614       O  0.44866739  0.65536063  0.52156835    -0.79300
O2615       O  0.38910835  0.62393023  0.62820826    -0.90900
O2616       O  0.35922709  0.62433742  0.51344988    -0.76900
O2617       O  0.40856808  0.62275942  0.52573378    -0.86400
O2618       O  0.37922679  0.60044692  0.56800944    -0.86100
O2619       O  0.44502206  0.62158203  0.57355699    -0.72800
O2620       O  0.41711824  0.60070575  0.61096991    -0.85000
Zr2621     Zr  0.43539416  0.54954655  0.54106561     2.26400
Zr2622     Zr  0.44859466  0.61270082  0.52030451     2.06300
Zr2623     Zr  0.39097633  0.56916610  0.60110585     2.10000
Zr2624     Zr  0.38395371  0.59062665  0.51584743     1.78800
O2625       O  0.39315531  0.56286686  0.65583537    -0.93800
O2626       O  0.38794441  0.60412656  0.46362927    -0.41600
O2627       O  0.39493533  0.55896964  0.54791023    -0.78200
O2628       O  0.42365735  0.58079113  0.50828321    -0.96900
O2629       O  0.46146609  0.58048410  0.55094339    -0.90200
O2630       O  0.43093108  0.55829569  0.59393241    -0.93000
C2631       C  0.35772078  0.64358320  0.52811710     1.00700
C2632       C  0.36854719  0.61655126  0.63176242     1.13600
C2633       C  0.43982611  0.67090514  0.53963477     1.04400
O2634       O  0.44433080  0.62667023  0.46840645    -0.95200
O2635       O  0.46938673  0.58703896  0.48584582    -0.90900
O2636       O  0.45734198  0.55013939  0.49386538    -0.84100
C2637       C  0.46961227  0.56520180  0.47993212     1.11100
O2638       O  0.47097514  0.61903672  0.63764706    -0.97200
Zr2639     Zr  0.45714476  0.58842901  0.60381712     1.88900
O2640       O  0.46579174  0.52836940  0.56859516    -0.73800
O2641       O  0.48877424  0.62514367  0.52308748    -0.53100
O2642       O  0.49712064  0.59613953  0.58955909    -0.97800
O2643       O  0.45672032  0.57920938  0.65795393    -0.55000
O2644       O  0.47623288  0.54949747  0.61016562    -0.74300
C2645       C  0.47666929  0.53053156  0.59400831     0.98000
O2646       O  0.43894951  0.51518749  0.50833979    -0.63200
O2647       O  0.35344548  0.55051607  0.59582472    -0.58000
O2648       O  0.40648125  0.52167478  0.55668518    -0.94600
O2649       O  0.39756455  0.52756170  0.60595082    -0.93100
O2650       O  0.34370048  0.57860507  0.51985791    -0.93400
O2651       O  0.37616850  0.55879379  0.48052512    -0.92200
C2652       C  0.40370579  0.51419247  0.58382806     1.16800
H2653       H  0.36328108  0.60511719  0.57131923     0.32800
H2654       H  0.42497391  0.57659958  0.48693517     0.43600
H2655       H  0.43451407  0.54531175  0.60684475     0.37200
H2656       H  0.45468567  0.63454122  0.57891006     0.33600
H2657       H  0.38469802  0.63078046  0.93901949     0.25400
H2658       H  0.48976227  0.63409105  0.54243841     0.31400
H2659       H  0.50632035  0.59177187  0.60766619     0.37300
H2660       H  0.34129279  0.57547579  0.54178863     0.31700
H2661       H  0.35288467  0.53904567  0.61247312     0.30600
H2662       H  0.40181138  0.57631670  0.66389208     0.32300
H2663       H  0.44940980  0.56377785  0.65900235     0.31300
H2664       H  0.40619337  0.56749167  0.95054623     0.35300
H2665       H  0.44443160  0.50273307  0.52195246     0.28000
H2666       H  0.39275024  0.67899115  0.59668833     0.32200
H2667       H  0.45735312  0.62949769  0.64067355     0.35100
H2668       H  0.35480442  0.54101031  0.57693887     0.27700
H2669       H  0.42288282  0.51089942  0.50301212     0.40600
H2670       H  0.45987680  0.63248340  0.46290421     0.30600
H2671       H  0.39595202  0.61918829  0.46551707     0.38200
H2672       H  0.44505585  0.58991022  0.66724306     0.30100
H2673       H  0.49786550  0.61075937  0.52681962     0.30200
H2674       H  0.41284435  0.67073519  0.61841678     0.30400
Zr2675     Zr  0.42577897  0.81867167  0.49209225     2.17500
O2676       O  0.43782812  0.80904073  0.93753777    -0.51900
O2677       O  0.38959572  0.79737695  0.50043943    -0.75100
O2678       O  0.43960666  0.77948687  0.50314643    -0.81900
O2679       O  0.37958849  0.85739793  0.46546828    -0.83700
O2680       O  0.46249927  0.78412352  0.54464664    -0.79300
O2681       O  0.40074151  0.82600134  0.44992257    -0.90900
O2682       O  0.39190951  0.79315953  0.55111179    -0.76900
O2683       O  0.43253004  0.81123934  0.54435826    -0.86400
O2684       O  0.39539638  0.83889152  0.51936000    -0.86100
O2685       O  0.46359659  0.83480204  0.50183390    -0.72800
O2686       O  0.43039008  0.85917808  0.47904759    -0.85000
Zr2687     Zr  0.44304664  0.88617280  0.57245414     2.26400
Zr2688     Zr  0.46986906  0.82607856  0.55438694     2.06300
Zr2689     Zr  0.39956572  0.87831394  0.50633956     2.10000
Zr2690     Zr  0.40256304  0.83058096  0.57160514     1.78800
O2691       O  0.40139586  0.91582055  0.96395272    -0.93800
O2692       O  0.40975898  0.80498424  0.61453108    -0.41600
O2693       O  0.40684100  0.86986760  0.55850492    -0.78200
O2694       O  0.43980779  0.84531828  0.58430247    -0.96900
O2695       O  0.47411679  0.86723407  0.54576064    -0.90200
O2696       O  0.43554461  0.89522998  0.52026751    -0.93000
C2697       C  0.38138371  0.79023138  0.52589374     1.00700
C2698       C  0.38298990  0.83942503  0.44827033     1.13600
C2699       C  0.45163503  0.77118271  0.52520915     1.04400
O2700       O  0.49548220  0.79894275  0.58075005    -0.95200
O2701       O  0.48246576  0.83728621  0.60492192    -0.90900
O2702       O  0.46774961  0.87341032  0.61465694    -0.84100
C2703       C  0.47925773  0.85507733  0.62225830     1.11100
O2704       O  0.48481226  0.87073637  0.94172651    -0.97200
Zr2705     Zr  0.46688290  0.87665993  0.49382819     1.88900
O2706       O  0.46311326  0.92159322  0.55708773    -0.73800
O2707       O  0.50744796  0.82869074  0.52911789    -0.53100
O2708       O  0.50486595  0.88613769  0.99450158    -0.97800
O2709       O  0.45451646  0.90683700  0.94124432    -0.55000
O2710       O  0.47423822  0.91825013  0.50783958    -0.74300
C2711       C  0.47123589  0.93051071  0.53256246     0.98000
O2712       O  0.44185006  0.91320166  0.61576280    -0.63200
O2713       O  0.35893138  0.89039699  0.50279166    -0.58000
O2714       O  0.40541656  0.90373387  0.58512598    -0.94600
O2715       O  0.38032612  0.90156660  0.54539224    -0.93100
O2716       O  0.36044515  0.83389989  0.57418240    -0.93400
O2717       O  0.38815309  0.84756042  0.61924114    -0.92200
C2718       C  0.38564296  0.90782990  0.57254508     1.16800
H2719       H  0.37964460  0.83504544  0.51424966     0.32800
H2720       H  0.44057486  0.84216603  0.60581321     0.43600
H2721       H  0.43364044  0.91161466  0.51675506     0.37200
H2722       H  0.47491658  0.82643897  0.48931027     0.33600
H2723       H  0.40049589  0.79096158  0.61030123     0.25400
H2724       H  0.51839613  0.83264549  0.54569612     0.31400
H2725       H  0.50686924  0.89719042  0.01174483     0.37300
H2726       H  0.35561244  0.82031890  0.58619568     0.31700
H2727       H  0.35674042  0.89570028  0.48161475     0.30600
H2728       H  0.39092801  0.92847623  0.97129438     0.32300
H2729       H  0.44721007  0.92143633  0.94903292     0.31300
H2730       H  0.40155966  0.85596442  0.62781649     0.35300
H2731       H  0.45810312  0.91523381  0.62246507     0.28000
H2732       H  0.43085723  0.79343507  0.93615922     0.32200
H2733       H  0.47779142  0.85574142  0.93589862     0.35100
H2734       H  0.34993803  0.87589109  0.50419055     0.27700
H2735       H  0.43427571  0.90475674  0.63250620     0.40600
H2736       H  0.48621052  0.79297495  0.59796990     0.30600
H2737       H  0.42609522  0.79976641  0.61200183     0.38200
H2738       H  0.44176120  0.89857980  0.93096478     0.30100
H2739       H  0.51157638  0.81252650  0.52322231     0.30200
H2740       H  0.45458964  0.80601524  0.94067418     0.30400
Zr2741     Zr  0.05637630  0.82837358  0.78620489     2.17500
O2742       O  0.07201959  0.80635329  0.82885716    -0.51900
O2743       O  0.07368446  0.80438472  0.74385905    -0.75100
O2744       O  0.03418068  0.79311581  0.79536598    -0.81900
O2745       O  0.11109898  0.86217864  0.76859306    -0.83700
O2746       O  0.99582835  0.80258731  0.79416413    -0.79300
O2747       O  0.09782211  0.82886765  0.78931033    -0.90900
O2748       O  0.05929419  0.81735438  0.69897059    -0.76900
O2749       O  0.02290998  0.82668899  0.75518626    -0.86400
O2750       O  0.06607544  0.85011693  0.74241396    -0.86100
O2751       O  0.02693019  0.84829298  0.81712270    -0.72800
O2752       O  0.06544391  0.86695247  0.80567852    -0.85000
Zr2753     Zr  0.01226844  0.90524652  0.75570031     2.26400
Zr2754     Zr  0.99303426  0.84462363  0.78540397     2.06300
Zr2755     Zr  0.07716428  0.88698517  0.76083718     2.10000
Zr2756     Zr  0.03214431  0.84861710  0.71131482     1.78800
O2757       O  0.10527707  0.90448726  0.79503954    -0.93800
O2758       O  0.00804995  0.81708080  0.69265594    -0.41600
O2759       O  0.04333585  0.88634074  0.72816204    -0.78200
O2760       O  0.00085320  0.86673624  0.73953561    -0.96900
O2761       O  0.00300282  0.88392263  0.79983500    -0.90200
O2762       O  0.04612405  0.90800973  0.78682375    -0.93000
C2763       C  0.07321141  0.80448948  0.71428000     1.00700
C2764       C  0.11407492  0.84191614  0.77987093     1.13600
C2765       C  0.01260304  0.78775425  0.79672412     1.04400
O2766       O  0.96345334  0.82285376  0.75839255    -0.95200
O2767       O  0.95752206  0.86663670  0.77636852    -0.90900
O2768       O  0.98131659  0.89356469  0.78931668    -0.84100
C2769       C  0.96154760  0.88811726  0.77912511     1.11100
O2770       O  0.04552914  0.87421495  0.88129214    -0.97200
Zr2771     Zr  0.03471517  0.88921939  0.83156322     1.88900
O2772       O  0.00943202  0.94113987  0.78306737    -0.73800
O2773       O  0.97476868  0.84131617  0.83530760    -0.53100
O2774       O  0.00234899  0.88990558  0.86747872    -0.97800
O2775       O  0.06727254  0.90916990  0.85484036    -0.55000
O2776       O  0.01908593  0.93163516  0.83152242    -0.74300
C2777       C  0.01129791  0.94648686  0.81131266     0.98000
O2778       O  0.98749819  0.92794068  0.72232027    -0.63200
O2779       O  0.09973161  0.89060766  0.71404468    -0.58000
O2780       O  0.04490656  0.91532135  0.72439971    -0.94600
O2781       O  0.07726693  0.92648135  0.74470030    -0.93100
O2782       O  0.05133468  0.86050568  0.66455336    -0.93400
O2783       O  0.00749443  0.86482903  0.67166346    -0.92200
C2784       C  0.05822338  0.93174866  0.73208921     1.16800
H2785       H  0.07977690  0.84475373  0.73179144     0.32800
H2786       H  0.98631127  0.86763624  0.72629141     0.43600
H2787       H  0.05061134  0.92376806  0.79140519     0.37200
H2788       H  0.02448495  0.83945615  0.83545235     0.33600
H2789       H  0.01545192  0.81207757  0.67320444     0.25400
H2790       H  0.96828735  0.85700978  0.83973274     0.31400
H2791       H  0.98999840  0.89910677  0.85736996     0.37300
H2792       H  0.05592959  0.87676571  0.66845286     0.31700
H2793       H  0.11563106  0.89414624  0.72100987     0.30600
H2794       H  0.11798819  0.90955505  0.78148636     0.32300
H2795       H  0.05999495  0.92043340  0.86930254     0.31300
H2796       H  0.00670468  0.88168860  0.67634901     0.35300
H2797       H  0.99301569  0.94410277  0.72427993     0.28000
H2798       H  0.07655650  0.79101424  0.82003303     0.32200
H2799       H  0.04306032  0.85726762  0.87975055     0.35100
H2800       H  0.10096427  0.87465908  0.70547729     0.27700
H2801       H  0.99190316  0.92286406  0.70146787     0.40600
H2802       H  0.97163079  0.81628445  0.74027542     0.30600
H2803       H  0.01099884  0.80399623  0.70661531     0.38200
H2804       H  0.07364832  0.91893137  0.83845646     0.30100
H2805       H  0.96099434  0.83161657  0.83153872     0.30200
H2806       H  0.05865262  0.80318070  0.84234472     0.30400
Zr2807     Zr  0.05047241  0.65035552  0.76922769     2.17500
O2808       O  0.04135866  0.67286151  0.72394790    -0.51900
O2809       O  0.07715899  0.67549544  0.79829940    -0.75100
O2810       O  0.02740882  0.68404882  0.78267241    -0.81900
O2811       O  0.10518949  0.62255981  0.74348152    -0.83700
O2812       O  0.99988660  0.67237123  0.81625397    -0.79300
O2813       O  0.08396040  0.65583917  0.73829405    -0.90900
O2814       O  0.06752450  0.66536011  0.84552628    -0.76900
O2815       O  0.03981306  0.64720634  0.82111676    -0.86400
O2816       O  0.08038719  0.62756554  0.79224155    -0.86100
O2817       O  0.01339247  0.63125072  0.76783448    -0.72800
O2818       O  0.04999170  0.61400923  0.74079517    -0.85000
Zr2819     Zr  0.03420807  0.56806210  0.81838640     2.26400
Zr2820     Zr  0.00322611  0.62925716  0.82068213     2.06300
Zr2821     Zr  0.08046833  0.59193308  0.76355120     2.10000
Zr2822     Zr  0.06894634  0.62391359  0.84400352     1.78800
O2823       O  0.07737470  0.57367015  0.71341381    -0.93800
O2824       O  0.05762792  0.63286228  0.89650893    -0.41600
O2825       O  0.06952243  0.58867258  0.81586487    -0.78200
O2826       O  0.03266578  0.60550669  0.84505089    -0.96900
O2827       O  0.00380133  0.59115333  0.79649460    -0.90200
O2828       O  0.04486842  0.57040803  0.76570197    -0.93000
C2829       C  0.07916635  0.67773463  0.82739563     1.00700
C2830       C  0.10278417  0.64404187  0.73635684     1.13600
C2831       C  0.01060401  0.68819545  0.80112711     1.04400
O2832       O  0.99586973  0.64527786  0.87150173    -0.95200
O2833       O  0.98338271  0.59695565  0.84352849    -0.90900
O2834       O  0.00758859  0.57009501  0.86121656    -0.84100
C2835       C  0.99191117  0.58569039  0.86576584     1.11100
O2836       O  0.00110449  0.61252372  0.69839298    -0.97200
Zr2837     Zr  0.01388128  0.59264190  0.74420978     1.88900
O2838       O  0.01473126  0.53683772  0.79116331    -0.73800
O2839       O  0.96339114  0.63836981  0.80614896    -0.53100
O2840       O  0.97178745  0.59689396  0.74230442    -0.97800
O2841       O  0.02477609  0.57456876  0.69558839    -0.55000
O2842       O  0.99893670  0.55210059  0.74849388    -0.74300
C2843       C  0.00223924  0.53507564  0.76715012     0.98000
O2844       O  0.03391855  0.53509361  0.85299126    -0.63200
O2845       O  0.11926861  0.57606285  0.75302615    -0.58000
O2846       O  0.07275500  0.55132551  0.82844129    -0.94600
O2847       O  0.09951908  0.56232647  0.79349066    -0.93100
O2848       O  0.11058105  0.63033666  0.84771374    -0.93400
O2849       O  0.08629245  0.59930463  0.88281447    -0.92200
C2850       C  0.09342981  0.55125952  0.81725284     1.16800
H2851       H  0.09521512  0.63512967  0.79270788     0.32800
H2852       H  0.02999893  0.60437004  0.86670149     0.43600
H2853       H  0.04678353  0.55527792  0.75616701     0.37200
H2854       H  0.00232057  0.64103913  0.75738403     0.33600
H2855       H  0.07094576  0.64133962  0.90518150     0.25400
H2856       H  0.96400991  0.64073177  0.78384723     0.31400
H2857       H  0.96643441  0.59553795  0.76368510     0.37300
H2858       H  0.11780949  0.61818886  0.83447763     0.31700
H2859       H  0.12153599  0.57712173  0.73071895     0.30600
H2860       H  0.08572498  0.58421223  0.69956982     0.32300
H2861       H  0.03184776  0.55941217  0.70089862     0.31300
H2862       H  0.07850116  0.58418770  0.88038901     0.35300
H2863       H  0.04215277  0.52220421  0.84219624     0.28000
H2864       H  0.04733567  0.68860019  0.72822386     0.32200
H2865       H  0.01313671  0.62429219  0.69470680     0.35100
H2866       H  0.13019621  0.58746031  0.76178448     0.27700
H2867       H  0.04423655  0.53939517  0.87013949     0.40600
H2868       H  0.00620235  0.65880151  0.87335685     0.30600
H2869       H  0.04518643  0.64479509  0.89481165     0.38200
H2870       H  0.03783378  0.58385558  0.68781086     0.30100
H2871       H  0.95489937  0.62368330  0.80857154     0.30200
H2872       H  0.02424495  0.67477639  0.72410726     0.30400
Zr2873     Zr  0.26339938  0.75513443  0.94159726     2.17500
O2874       O  0.28121350  0.77291797  0.48486097    -0.51900
O2875       O  0.29179862  0.72074556  0.46137656    -0.75100
O2876       O  0.24532861  0.74342466  0.49016036    -0.81900
O2877       O  0.30036185  0.78140107  0.87800678    -0.83700
O2878       O  0.20694666  0.73561402  0.48502421    -0.79300
O2879       O  0.29408214  0.78175669  0.92928871    -0.90900
O2880       O  0.28120090  0.69260671  0.94163170    -0.76900
O2881       O  0.23854918  0.72277901  0.94109223    -0.86400
O2882       O  0.27801122  0.73131026  0.90063499    -0.86100
O2883       O  0.22475137  0.77074198  0.93610687    -0.72800
O2884       O  0.26012877  0.77759457  0.89653303    -0.85000
Zr2885     Zr  0.21138587  0.73747693  0.84761453     2.26400
Zr2886     Zr  0.19997279  0.73753100  0.93277592     2.06300
Zr2887     Zr  0.27386203  0.75373195  0.85493832     2.10000
Zr2888     Zr  0.25277437  0.69894172  0.90083799     1.78800
O2889       O  0.29217689  0.77981939  0.81907888    -0.93800
O2890       O  0.23440482  0.67076667  0.93392863    -0.41600
O2891       O  0.24935238  0.72069696  0.85417868    -0.78200
O2892       O  0.21376904  0.71311853  0.89171027    -0.96900
O2893       O  0.19717301  0.76101312  0.88853998    -0.90200
O2894       O  0.23611127  0.76989228  0.84866569    -0.93000
C2895       C  0.29337280  0.70547942  0.95948462     1.00700
C2896       C  0.30436086  0.78886142  0.90519373     1.13600
C2897       C  0.22526677  0.73854473  0.50105572     1.04400
O2898       O  0.18720311  0.70293683  0.95905635    -0.95200
O2899       O  0.16446968  0.72643466  0.90494474    -0.90900
O2900       O  0.17128406  0.72854048  0.85392529    -0.84100
C2901       C  0.15810739  0.72468862  0.87677357     1.11100
O2902       O  0.23008428  0.82400559  0.92729117    -0.97200
Zr2903     Zr  0.22232541  0.79319995  0.89039631     1.88900
O2904       O  0.19133465  0.76915727  0.82170044    -0.73800
O2905       O  0.16948714  0.76244457  0.95436465    -0.53100
O2906       O  0.18547368  0.81062872  0.90655228    -0.97800
O2907       O  0.24427923  0.82507329  0.86903858    -0.55000
O2908       O  0.20036488  0.80275636  0.84571740    -0.74300
C2909       C  0.19014582  0.79137092  0.82458234     0.98000
O2910       O  0.20321390  0.70318416  0.81657415    -0.63200
O2911       O  0.30751984  0.72825230  0.84750210    -0.58000
O2912       O  0.22616023  0.74007883  0.79699998    -0.94600
O2913       O  0.26483454  0.74680987  0.80004638    -0.93100
O2914       O  0.28497071  0.67770188  0.87700726    -0.93400
O2915       O  0.24279152  0.66374859  0.87278893    -0.92200
C2916       C  0.24604020  0.74305133  0.78482978     1.16800
H2917       H  0.29405965  0.72682188  0.90353081     0.32800
H2918       H  0.20350571  0.70007326  0.88919034     0.43600
H2919       H  0.23578909  0.77847773  0.82986235     0.37200
H2920       H  0.22360829  0.77617606  0.45536856     0.33600
H2921       H  0.23799830  0.67598095  0.95496043     0.25400
H2922       H  0.16601017  0.77121630  0.43434784     0.31400
H2923       H  0.18513824  0.80884154  0.92897176     0.37300
H2924       H  0.28864664  0.68657067  0.85846088     0.31700
H2925       H  0.30822979  0.72538074  0.82522957     0.30600
H2926       H  0.30789777  0.77314867  0.81557559     0.32300
H2927       H  0.24090866  0.82464725  0.84692444     0.31300
H2928       H  0.22562759  0.66381029  0.87207712     0.35300
H2929       H  0.21868529  0.69617287  0.81202466     0.28000
H2930       H  0.28515270  0.76147189  0.50077508     0.32200
H2931       H  0.24197735  0.81727665  0.94096825     0.35100
H2932       H  0.32099727  0.73822575  0.85187535     0.27700
H2933       H  0.19603426  0.69213985  0.83077984     0.40600
H2934       H  0.17010098  0.70322051  0.95750447     0.30600
H2935       H  0.21753714  0.67373321  0.93178198     0.38200
H2936       H  0.26072671  0.81997665  0.87041338     0.30100
H2937       H  0.16234041  0.75524096  0.46259277     0.30200
H2938       H  0.26778148  0.78186397  0.49316632     0.30400
Zr2939     Zr  0.25897968  0.72012465  0.59585604     2.17500
O2940       O  0.26618729  0.68756470  0.56087610    -0.51900
O2941       O  0.28799533  0.74282677  0.57182718    -0.75100
O2942       O  0.24335520  0.72850732  0.54623040    -0.81900
O2943       O  0.29894048  0.70147654  0.66025754    -0.83700
O2944       O  0.20569719  0.74095690  0.54933915    -0.79300
O2945       O  0.29123841  0.69487214  0.61002076    -0.90900
O2946       O  0.28294775  0.77954877  0.58998879    -0.76900
O2947       O  0.23567305  0.75441490  0.59355863    -0.86400
O2948       O  0.27518994  0.74566828  0.63317373    -0.86100
O2949       O  0.21953291  0.70853813  0.60315127    -0.72800
O2950       O  0.25653197  0.70125443  0.64373447    -0.85000
Zr2951     Zr  0.20905803  0.74811591  0.68854668     2.26400
Zr2952     Zr  0.19634337  0.74374312  0.60409426     2.06300
Zr2953     Zr  0.27060980  0.72779942  0.68162771     2.10000
Zr2954     Zr  0.25210479  0.77989490  0.62967591     1.78800
O2955       O  0.28651578  0.69965047  0.71721661    -0.93800
O2956       O  0.23788414  0.80734272  0.59198137    -0.41600
O2957       O  0.24741865  0.76229108  0.67911041    -0.78200
O2958       O  0.21247458  0.76943920  0.64171041    -0.96900
O2959       O  0.19384813  0.72275857  0.65042749    -0.90200
O2960       O  0.23263698  0.71403402  0.69027272    -0.93000
C2961       C  0.29342702  0.76422563  0.57290351     1.00700
C2962       C  0.30267899  0.69123770  0.63469105     1.13600
C2963       C  0.22433365  0.73563602  0.53428325     1.04400
O2964       O  0.17890942  0.77776838  0.58037145    -0.95200
O2965       O  0.16037007  0.75593774  0.63246581    -0.90900
O2966       O  0.16963802  0.76086505  0.68249558    -0.84100
C2967       C  0.15509862  0.76103231  0.66058201     1.11100
O2968       O  0.24034707  0.65877576  0.62397745    -0.97200
Zr2969     Zr  0.21811829  0.68901733  0.65079241     1.88900
O2970       O  0.18198720  0.71965864  0.70806719    -0.73800
O2971       O  0.16806941  0.71756436  0.58177618    -0.53100
O2972       O  0.18397139  0.67426743  0.62479758    -0.97800
O2973       O  0.22278054  0.64989622  0.67085629    -0.55000
O2974       O  0.19956953  0.68514340  0.69913680    -0.74300
C2975       C  0.18272792  0.69744799  0.70918113     0.98000
O2976       O  0.19844323  0.78255512  0.71868066    -0.63200
O2977       O  0.30395555  0.75276253  0.68867906    -0.58000
O2978       O  0.22575462  0.74540437  0.73899239    -0.94600
O2979       O  0.26436230  0.73737263  0.73580098    -0.93100
O2980       O  0.28491331  0.79923066  0.65324750    -0.93400
O2981       O  0.24190639  0.81743405  0.65245349    -0.92200
C2982       C  0.24578944  0.74213591  0.75108231     1.16800
H2983       H  0.29150143  0.74838501  0.62980097     0.32800
H2984       H  0.20301381  0.78342698  0.64308285     0.43600
H2985       H  0.23255566  0.70682191  0.71005742     0.37200
H2986       H  0.21474129  0.69842809  0.58672328     0.33600
H2987       H  0.25133618  0.81732028  0.58763505     0.25400
H2988       H  0.15788123  0.71329712  0.59898961     0.31400
H2989       H  0.18895111  0.65885238  0.61668005     0.37300
H2990       H  0.28432983  0.79469222  0.67493307     0.31700
H2991       H  0.30559329  0.75436390  0.71105222     0.30600
H2992       H  0.30167859  0.70599602  0.72343850     0.32300
H2993       H  0.20684435  0.64421606  0.67425508     0.31300
H2994       H  0.23775796  0.81391094  0.67382282     0.35300
H2995       H  0.21226800  0.78641552  0.73096259     0.28000
H2996       H  0.27481703  0.69423695  0.54353766     0.32200
H2997       H  0.23581423  0.66026806  0.60231507     0.35100
H2998       H  0.31747290  0.74308097  0.68221772     0.27700
H2999       H  0.19738112  0.79522604  0.70367222     0.40600
H3000       H  0.16642565  0.77151382  0.56729643     0.30600
H3001       H  0.23590996  0.79802975  0.57308168     0.38200
H3002       H  0.22939719  0.65189319  0.69151430     0.30100
H3003       H  0.15819163  0.72758574  0.56882304     0.30200
H3004       H  0.25081929  0.68360278  0.55241066     0.30400
Zr3005     Zr  0.54350534  0.93477068  0.69409879     2.17500
O3006       O  0.50946362  0.93227896  0.66136444    -0.51900
O3007       O  0.51006345  0.95633610  0.71514772    -0.75100
O3008       O  0.52386868  0.89864924  0.70339246    -0.81900
O3009       O  0.57498681  0.97466963  0.64064295    -0.83700
O3010       O  0.54270521  0.87574366  0.73747042    -0.79300
O3011       O  0.55254406  0.94270388  0.63986723    -0.90900
O3012       O  0.52045451  0.97033995  0.76141450    -0.76900
O3013       O  0.54861563  0.92912129  0.74747161    -0.86400
O3014       O  0.55859810  0.97102752  0.71179026    -0.86100
O3015       O  0.56788641  0.90050948  0.70004567    -0.72800
O3016       O  0.58010246  0.93949668  0.67586678    -0.85000
Zr3017     Zr  0.62806930  0.93560198  0.74132549     2.26400
Zr3018     Zr  0.57607525  0.89762800  0.75401235     2.06300
Zr3019     Zr  0.59620876  0.97462864  0.68778611     2.10000
Zr3020     Zr  0.56391480  0.96487350  0.76498037     1.78800
O3021       O  0.60906513  0.00021580  0.64729273    -0.93800
O3022       O  0.54713508  0.95425830  0.81397464    -0.41600
O3023       O  0.60211415  0.96939978  0.74089463    -0.78200
O3024       O  0.59249316  0.93333508  0.77145757    -0.96900
O3025       O  0.61053637  0.90071008  0.72416665    -0.90200
O3026       O  0.62040403  0.94099607  0.68884587    -0.93000
C3027       C  0.50487240  0.96599599  0.74088164     1.00700
C3028       C  0.56406053  0.95871014  0.62641323     1.13600
C3029       C  0.52638894  0.87984194  0.71853436     1.04400
O3030       O  0.56271920  0.90370480  0.80633137    -0.95200
O3031       O  0.61272300  0.87672786  0.76560756    -0.90900
O3032       O  0.64135735  0.90312270  0.77103020    -0.84100
C3033       C  0.63360885  0.88247817  0.77263477     1.11100
O3034       O  0.57831166  0.89042960  0.63151805    -0.97200
Zr3035     Zr  0.60227946  0.90655100  0.67197270     1.88900
O3036       O  0.66016830  0.91716729  0.71036542    -0.73800
O3037       O  0.57252773  0.85985175  0.77841679    -0.53100
O3038       O  0.60815395  0.86446602  0.67239086    -0.97800
O3039       O  0.61458631  0.91617963  0.62052801    -0.55000
O3040       O  0.64291065  0.89973819  0.66999818    -0.74300
C3041       C  0.66086220  0.90525774  0.68509830     0.98000
O3042       O  0.64881523  0.95089974  0.78539056    -0.63200
O3043       O  0.58484589  0.01293399  0.70719964    -0.58000
O3044       O  0.65579407  0.96378430  0.72566371    -0.94600
O3045       O  0.63867247  0.98265136  0.68638122    -0.93100
O3046       O  0.55986643  0.00696606  0.76295741    -0.93400
O3047       O  0.58008024  0.98475749  0.80926355    -0.92200
C3048       C  0.65659202  0.97689549  0.70241504     1.16800
H3049       H  0.54827541  0.98396295  0.70750630     0.32800
H3050       H  0.59657658  0.93221724  0.79279214     0.43600
H3051       H  0.63396494  0.94286691  0.67641371     0.37200
H3052       H  0.56244893  0.88637123  0.69060852     0.33600
H3053       H  0.53572515  0.94208452  0.80903789     0.25400
H3054       H  0.55676955  0.85948217  0.78752156     0.31400
H3055       H  0.60543742  0.85969592  0.69370366     0.37300
H3056       H  0.54605673  0.01072808  0.77569920     0.31700
H3057       H  0.59949489  0.02164488  0.70852606     0.30600
H3058       H  0.61889388  0.99040287  0.63358236     0.32300
H3059       H  0.62304550  0.90212517  0.61304634     0.31300
H3060       H  0.59647594  0.97944856  0.80994282     0.35300
H3061       H  0.64665470  0.96797866  0.78435120     0.28000
H3062       H  0.50811370  0.94742791  0.65102574     0.32200
H3063       H  0.56238531  0.89619027  0.63598210     0.35100
H3064       H  0.57622548  0.02026516  0.69023388     0.27700
H3065       H  0.63939233  0.94636541  0.80320037     0.40600
H3066       H  0.57512794  0.89694611  0.81916029     0.30600
H3067       H  0.55966739  0.94606946  0.82505502     0.38200
H3068       H  0.62686740  0.92783525  0.62341836     0.30100
H3069       H  0.57234939  0.84819370  0.76165788     0.30200
H3070       H  0.51350781  0.92082018  0.64512602     0.30400
Zr3071     Zr  0.87331650  0.99842033  0.70989347     2.17500
O3072       O  0.89060695  0.02656029  0.74466471    -0.51900
O3073       O  0.90272352  0.00408380  0.67079986    -0.75100
O3074       O  0.90926341  0.98146198  0.72954561    -0.81900
O3075       O  0.82320716  0.04199618  0.68929009    -0.83700
O3076       O  0.89856700  0.95295993  0.70036501    -0.79300
O3077       O  0.86170447  0.03823013  0.70001012    -0.90900
O3078       O  0.89460365  0.97869742  0.63243583    -0.76900
O3079       O  0.87693589  0.96170451  0.68421753    -0.86400
O3080       O  0.84835358  0.99957601  0.66657144    -0.86100
O3081       O  0.86335460  0.96910737  0.74722669    -0.72800
O3082       O  0.83449795  0.00400796  0.72979489    -0.85000
Zr3083     Zr  0.80213376  0.94059732  0.69943586     2.26400
Zr3084     Zr  0.86547814  0.93264318  0.71934881     2.06300
Zr3085     Zr  0.80933997  0.00330810  0.68590982     2.10000
Zr3086     Zr  0.85391277  0.96335678  0.64116006     1.78800
O3087       O  0.78298856  0.03635489  0.69351130    -0.93800
O3088       O  0.87580261  0.93113755  0.61805718    -0.41600
O3089       O  0.81415787  0.96711061  0.66023706    -0.78200
O3090       O  0.84010872  0.93377764  0.67625283    -0.96900
O3091       O  0.82837376  0.93950483  0.74050351    -0.90200
O3092       O  0.79868356  0.97693472  0.72518495    -0.93000
C3093       C  0.90804802  0.99385452  0.64549527     1.00700
C3094       C  0.84322921  0.05024116  0.69428244     1.13600
C3095       C  0.91276418  0.96082282  0.71973103     1.04400
O3096       O  0.88959206  0.89921690  0.70516077    -0.95200
O3097       O  0.84571157  0.89554268  0.72344389    -0.90900
O3098       O  0.80950395  0.90011984  0.70391392    -0.84100
C3099       C  0.82555583  0.88802693  0.71628907     1.11100
O3100       O  0.83086553  0.01027772  0.79725357    -0.97200
Zr3101     Zr  0.82485126  0.97518430  0.76690436     1.88900
O3102       O  0.78774988  0.92323292  0.74798306    -0.73800
O3103       O  0.88285927  0.92391345  0.76857448    -0.53100
O3104       O  0.84846908  0.96729304  0.81168108    -0.97800
O3105       O  0.78823549  0.98732831  0.79071703    -0.55000
O3106       O  0.80717129  0.94007541  0.78719727    -0.74300
C3107       C  0.79397184  0.92414566  0.77640328     0.98000
O3108       O  0.77891069  0.91991815  0.66182441    -0.63200
O3109       O  0.80437553  0.00807405  0.63124316    -0.58000
O3110       O  0.76310769  0.95687670  0.69107923    -0.94600
O3111       O  0.76786198  0.99559428  0.68467248    -0.93100
O3112       O  0.84832040  0.99103169  0.60018571    -0.93400
O3113       O  0.83368609  0.94563642  0.59845514    -0.92200
C3114       C  0.75511799  0.97761078  0.68706712     1.16800
H3115       H  0.85219538  0.01219157  0.65326720     0.32800
H3116       H  0.84032700  0.91887472  0.66598142     0.43600
H3117       H  0.78328693  0.97979434  0.73327415     0.37200
H3118       H  0.87446231  0.96931615  0.76371838     0.33600
H3119       H  0.89222329  0.93407023  0.62322634     0.25400
H3120       H  0.87062014  0.92792957  0.78373291     0.31400
H3121       H  0.83728406  0.96248410  0.82750800     0.37300
H3122       H  0.86100678  0.98737152  0.58552924     0.31700
H3123       H  0.78799004  0.00404134  0.62739059     0.30600
H3124       H  0.77840430  0.04113294  0.67270870     0.32300
H3125       H  0.78530755  0.00331555  0.78346448     0.31300
H3126       H  0.82176587  0.93587253  0.60812457     0.35300
H3127       H  0.78995563  0.90929735  0.65106609     0.28000
H3128       H  0.90659970  0.02871435  0.73688265     0.32200
H3129       H  0.84660188  0.01544191  0.79155347     0.35100
H3130       H  0.80493485  0.02506400  0.62820240     0.27700
H3131       H  0.76883840  0.90960910  0.67380518     0.40600
H3132       H  0.88611040  0.89645568  0.68334068     0.30600
H3133       H  0.87177054  0.91738436  0.63017329     0.38200
H3134       H  0.79175424  0.98917458  0.81269300     0.30100
H3135       H  0.88393696  0.90675184  0.76902844     0.30200
H3136       H  0.89258926  0.01827409  0.76413551     0.30400
Zr3137     Zr  0.60658010  0.53084252  0.98244577     2.17500
O3138       O  0.57715617  0.54111121  0.02051010    -0.51900
O3139       O  0.58406442  0.49974518  0.95991566    -0.75100
O3140       O  0.57403867  0.54876232  0.95623697    -0.81900
O3141       O  0.64565674  0.50260094  0.04138249    -0.83700
O3142       O  0.58586874  0.57320802  0.91890066    -0.79300
O3143       O  0.60799621  0.50571532  0.02606831    -0.90900
O3144       O  0.60253028  0.49018964  0.91578201    -0.76900
O3145       O  0.61423982  0.53616689  0.92993482    -0.86400
O3146       O  0.63735777  0.50379512  0.97156635    -0.86100
O3147       O  0.61596909  0.57086758  0.97672283    -0.72800
O3148       O  0.63865627  0.54040487  0.01470579    -0.85000
Zr3149     Zr  0.68849905  0.56015016  0.94632113     2.26400
Zr3150     Zr  0.62715515  0.57526911  0.92426487     2.06300
Zr3151     Zr  0.67088902  0.51526594  0.00110183     2.10000
Zr3152     Zr  0.64306173  0.50834835  0.91851453     1.78800
O3153       O  0.68956848  0.50451175  0.04878204    -0.93800
O3154       O  0.63190045  0.51423081  0.86557445    -0.41600
O3155       O  0.67751433  0.51975458  0.94797289    -0.78200
O3156       O  0.65741208  0.54781304  0.91266806    -0.96900
O3157       O  0.65739570  0.58617326  0.95779054    -0.90200
O3158       O  0.67936651  0.55526575  0.99841116    -0.93000
C3159       C  0.58472796  0.48876806  0.93429186     1.00700
C3160       C  0.62396115  0.49856793  0.04418249     1.13600
C3161       C  0.57028395  0.56264500  0.93395511     1.04400
O3162       O  0.61810260  0.57684067  0.87014226    -0.95200
O3163       O  0.65353758  0.60021061  0.89674236    -0.90900
O3164       O  0.69036291  0.58843973  0.90737478    -0.84100
C3165       C  0.67568874  0.60168428  0.89423533     1.11100
O3166       O  0.63046778  0.56154959  0.56694820    -0.97200
Zr3167     Zr  0.64719003  0.58025923  0.00969076     1.88900
O3168       O  0.70356466  0.59614208  0.97101244    -0.73800
O3169       O  0.61309598  0.61467814  0.93492130    -0.53100
O3170       O  0.63155028  0.61948883  0.00429937    -0.97800
O3171       O  0.67650546  0.57380537  0.55960413    -0.55000
O3172       O  0.68005273  0.60469027  0.01145171    -0.74300
C3173       C  0.69794179  0.60824949  0.99507887     0.98000
O3174       O  0.71806921  0.54957055  0.90853202    -0.63200
O3175       O  0.67934520  0.47548436  0.98454862    -0.58000
O3176       O  0.72424614  0.54872997  0.97164958    -0.94600
O3177       O  0.71373791  0.52185171  0.00624764    -0.93100
O3178       O  0.65144656  0.46703828  0.92391437    -0.93400
O3179       O  0.67224079  0.49262393  0.88330682    -0.92200
C3180       C  0.72900308  0.53511750  0.99376770     1.16800
H3181       H  0.63276814  0.48818750  0.97628977     0.32800
H3182       H  0.66228935  0.54978384  0.89173511     0.43600
H3183       H  0.69199057  0.55945042  0.01166423     0.37200
H3184       H  0.60268024  0.58061895  0.98158875     0.33600
H3185       H  0.63202258  0.49851680  0.85621002     0.25400
H3186       H  0.61060666  0.62156800  0.91459091     0.31400
H3187       H  0.63001733  0.61052112  0.55337583     0.37300
H3188       H  0.63711347  0.46042070  0.93253185     0.31700
H3189       H  0.69292733  0.47671619  0.97082942     0.30600
H3190       H  0.69886672  0.49031471  0.04415059     0.32300
H3191       H  0.69137099  0.57808207  0.54987856     0.31300
H3192       H  0.68692009  0.49991529  0.88974950     0.35300
H3193       H  0.73150559  0.55948377  0.91327000     0.28000
H3194       H  0.56329986  0.53225416  0.01437597     0.32200
H3195       H  0.61504013  0.55548217  0.56135236     0.35100
H3196       H  0.68548131  0.46752151  0.00276609     0.27700
H3197       H  0.72318728  0.53364697  0.91390884     0.40600
H3198       H  0.61502182  0.56057255  0.86415641     0.30600
H3199       H  0.61523298  0.51860123  0.86664545     0.38200
H3200       H  0.67884495  0.55747186  0.56576682     0.30100
H3201       H  0.59730411  0.61304037  0.94351771     0.30200
H3202       H  0.57729257  0.53205322  0.53821577     0.30400
Zr3203     Zr  0.94502844  0.55695493  0.98771889     2.17500
O3204       O  0.96862448  0.55744238  0.94171295    -0.51900
O3205       O  0.97468488  0.53119643  0.00812719    -0.75100
O3206       O  0.97354330  0.58626364  0.00114462    -0.81900
O3207       O  0.91081685  0.50579002  0.98086269    -0.83700
O3208       O  0.96070019  0.62254129  0.99980173    -0.79300
O3209       O  0.93212214  0.52800594  0.95047666    -0.90900
O3210       O  0.96680838  0.54145585  0.55622283    -0.76900
O3211       O  0.94788499  0.57755828  0.03518488    -0.86400
O3212       O  0.92550864  0.53266436  0.02293428    -0.86100
O3213       O  0.92661630  0.59465424  0.98219166    -0.72800
O3214       O  0.90543517  0.55438903  0.97123332    -0.85000
Zr3215     Zr  0.86844500  0.58803986  0.04404986     2.26400
Zr3216     Zr  0.92739946  0.61426778  0.03177307     2.06300
Zr3217     Zr  0.88507296  0.53170951  0.00795752     2.10000
Zr3218     Zr  0.92491897  0.55508797  0.56316641     1.78800
O3219       O  0.86582382  0.50802578  0.96957435    -0.93800
O3220       O  0.94678622  0.57509192  0.60278306    -0.41600
O3221       O  0.88871877  0.55178519  0.05512961    -0.78200
O3222       O  0.90375281  0.59124506  0.55504968    -0.96900
O3223       O  0.88949166  0.61175762  0.01003217    -0.90200
O3224       O  0.86755772  0.56838727  0.99651381    -0.93000
C3225       C  0.98308906  0.53044191  0.03513644     1.00700
C3226       C  0.91956825  0.51010495  0.95498123     1.13600
C3227       C  0.97394939  0.60638366  0.98934849     1.04400
O3228       O  0.95023444  0.62399278  0.56379353    -0.95200
O3229       O  0.89920313  0.64231423  0.54910672    -0.90900
O3230       O  0.86628951  0.62301828  0.56116801    -0.84100
C3231       C  0.87920754  0.64075894  0.56206910     1.11100
O3232       O  0.90556989  0.58182930  0.91270533    -0.97200
Zr3233     Zr  0.88875439  0.59154923  0.96240569     1.88900
O3234       O  0.84626113  0.62046789  0.01717716    -0.73800
O3235       O  0.93555157  0.65562462  0.02776636    -0.53100
O3236       O  0.90174636  0.62512742  0.93413159    -0.97800
O3237       O  0.85775525  0.57872567  0.92874976    -0.55000
O3238       O  0.85916746  0.62085526  0.96821350    -0.74300
C3239       C  0.84640243  0.62905231  0.98973536     0.98000
O3240       O  0.84103036  0.58567524  0.57653061    -0.63200
O3241       O  0.88152304  0.50193435  0.04655858    -0.58000
O3242       O  0.83294224  0.56483839  0.03947758    -0.94600
O3243       O  0.84250997  0.53102505  0.01542981    -0.93100
O3244       O  0.92297736  0.51558616  0.58216489    -0.93400
O3245       O  0.90783748  0.55457595  0.61407572    -0.92200
C3246       C  0.82731108  0.54528683  0.02699743     1.16800
H3247       H  0.93269577  0.51745968  0.02423049     0.32800
H3248       H  0.90232442  0.59896907  0.57469302     0.43600
H3249       H  0.85211526  0.56714889  0.98839719     0.37200
H3250       H  0.93414101  0.60311223  0.96644482     0.33600
H3251       H  0.96186104  0.57875061  0.59316027     0.25400
H3252       H  0.95196280  0.65752666  0.03379943     0.31400
H3253       H  0.88967408  0.62766348  0.91844913     0.37300
H3254       H  0.93853874  0.51250275  0.59086835     0.31700
H3255       H  0.86838794  0.49234017  0.03967962     0.30600
H3256       H  0.86126479  0.49380222  0.98038675     0.32300
H3257       H  0.85702274  0.59073568  0.91277500     0.31300
H3258       H  0.89242038  0.54750539  0.61121663     0.35300
H3259       H  0.83984682  0.56880664  0.58023153     0.28000
H3260       H  0.97422284  0.54128205  0.93848148     0.32200
H3261       H  0.91276315  0.56624799  0.91498629     0.35100
H3262       H  0.89538728  0.49182306  0.04340140     0.27700
H3263       H  0.85053907  0.59134362  0.59376397     0.40600
H3264       H  0.94677817  0.64046475  0.56894227     0.30600
H3265       H  0.93890435  0.59034711  0.60549584     0.38200
H3266       H  0.84318290  0.58110673  0.94045529     0.30100
H3267       H  0.93506615  0.65913588  0.00571863     0.30200
H3268       H  0.95748261  0.56026960  0.92497587     0.30400
Zr3269     Zr  0.75638038  0.78727088  0.81525334     2.17500
O3270       O  0.78726911  0.80014745  0.78143585    -0.51900
O3271       O  0.72240890  0.81033043  0.79741701    -0.75100
O3272       O  0.75260290  0.77006244  0.76500777    -0.81900
O3273       O  0.76764983  0.83540884  0.87164998    -0.83700
O3274       O  0.75103339  0.73077946  0.76774910    -0.79300
O3275       O  0.76541096  0.82744683  0.82082372    -0.90900
O3276       O  0.69159379  0.80057042  0.82684206    -0.76900
O3277       O  0.72572546  0.76043645  0.81726704    -0.86400
O3278       O  0.73410282  0.79906980  0.85852898    -0.86100
O3279       O  0.77624459  0.75052778  0.82134541    -0.72800
O3280       O  0.78289318  0.78516771  0.85793154    -0.85000
Zr3281     Zr  0.74544261  0.73283709  0.90943117     2.26400
Zr3282     Zr  0.74516422  0.72375112  0.82252147     2.06300
Zr3283     Zr  0.76003343  0.79843029  0.90038124     2.10000
Zr3284     Zr  0.70377397  0.77167943  0.86152053     1.78800
O3285       O  0.79635288  0.81177665  0.92222361    -0.93800
O3286       O  0.67284288  0.75269132  0.83325612    -0.41600
O3287       O  0.72875732  0.77114807  0.90457588    -0.78200
O3288       O  0.72085105  0.73439117  0.86546985    -0.96900
O3289       O  0.76880755  0.72028588  0.86740403    -0.90200
O3290       O  0.77635131  0.76002485  0.90811218    -0.93000
C3291       C  0.70111460  0.81281037  0.80645537     1.00700
C3292       C  0.76824868  0.84149943  0.84314206     1.13600
C3293       C  0.75200533  0.74977112  0.75266288     1.04400
O3294       O  0.71146056  0.70909015  0.79543102    -0.95200
O3295       O  0.73186762  0.68859430  0.84520444    -0.90900
O3296       O  0.72802763  0.69561964  0.89632480    -0.84100
C3297       C  0.72515290  0.68326852  0.87202031     1.11100
O3298       O  0.83227667  0.76183643  0.83810139    -0.97200
Zr3299     Zr  0.79964443  0.74683271  0.86690825     1.88900
O3300       O  0.77508992  0.70754761  0.93137534    -0.73800
O3301       O  0.77197202  0.69356140  0.80422590    -0.53100
O3302       O  0.81888451  0.71575995  0.83786551    -0.97800
O3303       O  0.83049791  0.76278263  0.89842536    -0.55000
O3304       O  0.80793189  0.71660012  0.90614529    -0.74300
C3305       C  0.79697798  0.70492174  0.92669785     0.98000
O3306       O  0.71746870  0.72343320  0.94922599    -0.63200
O3307       O  0.73755551  0.82959811  0.92492867    -0.58000
O3308       O  0.74778637  0.75208926  0.95834279    -0.94600
O3309       O  0.75323635  0.79114162  0.95478622    -0.93100
O3310       O  0.68030726  0.80236710  0.88530121    -0.93400
O3311       O  0.67749557  0.75781522  0.90076687    -0.92200
C3312       C  0.75014069  0.77243908  0.97002841     1.16800
H3313       H  0.72786493  0.81462225  0.85658739     0.32800
H3314       H  0.70782432  0.72418046  0.86695023     0.43600
H3315       H  0.78509927  0.75945098  0.92680188     0.37200
H3316       H  0.78586095  0.74746824  0.80369944     0.33600
H3317       H  0.67575394  0.75656027  0.81164271     0.25400
H3318       H  0.77684413  0.68518575  0.82280411     0.31400
H3319       H  0.81556119  0.71911262  0.81621634     0.37300
H3320       H  0.69056108  0.80928264  0.90088572     0.31700
H3321       H  0.74868190  0.84239601  0.92775910     0.30600
H3322       H  0.80351174  0.79784114  0.93150206     0.32300
H3323       H  0.84366309  0.75170783  0.89577022     0.31300
H3324       H  0.67334228  0.74190651  0.89426762     0.35300
H3325       H  0.70253381  0.73009432  0.94218041     0.28000
H3326       H  0.79316434  0.78600140  0.77077677     0.32200
H3327       H  0.82685066  0.77723641  0.83101810     0.35100
H3328       H  0.72677923  0.83520145  0.90902176     0.27700
H3329       H  0.71533599  0.70645151  0.94840616     0.40600
H3330       H  0.71790866  0.69887044  0.77908996     0.30600
H3331       H  0.67632161  0.73586356  0.83444125     0.38200
H3332       H  0.82544414  0.76057010  0.91977963     0.30100
H3333       H  0.76208996  0.68241053  0.79310942     0.30200
H3334       H  0.80012907  0.80454889  0.79514069     0.30400
Zr3335     Zr  0.73810882  0.78426076  0.65805368     2.17500
O3336       O  0.70217081  0.78811935  0.68707686    -0.51900
O3337       O  0.76490396  0.80555704  0.68929947    -0.75100
O3338       O  0.74281443  0.76810429  0.70759801    -0.81900
O3339       O  0.72166906  0.83170479  0.60368068    -0.83700
O3340       O  0.76078295  0.73285221  0.70297246    -0.79300
O3341       O  0.72294856  0.82283380  0.65399102    -0.90900
O3342       O  0.79999116  0.80138214  0.66654932    -0.76900
O3343       O  0.77519709  0.76638144  0.65611366    -0.86400
O3344       O  0.75894479  0.80354386  0.61906566    -0.86100
O3345       O  0.73043731  0.74415384  0.64980511    -0.72800
O3346       O  0.71529943  0.77903968  0.61313177    -0.85000
Zr3347     Zr  0.76692084  0.73764864  0.56215207     2.26400
Zr3348     Zr  0.76810318  0.72643268  0.64759535     2.06300
Zr3349     Zr  0.73702043  0.79772052  0.57374602     2.10000
Zr3350     Zr  0.79552891  0.78498783  0.61630254     1.78800
O3351       O  0.69960350  0.80739503  0.55133024    -0.93800
O3352       O  0.83293930  0.77243718  0.63656517    -0.41600
O3353       O  0.77421052  0.77834914  0.57033946    -0.78200
O3354       O  0.78931609  0.74526141  0.60730576    -0.96900
O3355       O  0.74630122  0.71896306  0.60187544    -0.90200
O3356       O  0.73012811  0.75702912  0.56386761    -0.93000
C3357       C  0.78691334  0.80811647  0.68869054     1.00700
C3358       C  0.71867402  0.83688830  0.63231057     1.13600
C3359       C  0.75173172  0.74970608  0.71892245     1.04400
O3360       O  0.79884145  0.71478049  0.68232071    -0.95200
O3361       O  0.79795237  0.70190134  0.62436938    -0.90900
O3362       O  0.79668731  0.70846161  0.57339875    -0.84100
C3363       C  0.80568154  0.69895655  0.59710641     1.11100
O3364       O  0.67356310  0.74523072  0.63169400    -0.97200
Zr3365     Zr  0.70948265  0.73835023  0.60328872     1.88900
O3366       O  0.74357834  0.70606706  0.54110619    -0.73800
O3367       O  0.74820165  0.68988984  0.65447242    -0.53100
O3368       O  0.69593398  0.70523254  0.63209875    -0.97800
O3369       O  0.67814338  0.74896065  0.56870570    -0.55000
O3370       O  0.70869136  0.70742161  0.56507401    -0.74300
C3371       C  0.72292739  0.69855109  0.54541059     0.98000
O3372       O  0.79620744  0.73403732  0.02536027    -0.63200
O3373       O  0.75731607  0.83176612  0.55561717    -0.58000
O3374       O  0.75960537  0.75471605  0.01520712    -0.94600
O3375       O  0.74052987  0.78958901  0.01868843    -0.93100
O3376       O  0.80306376  0.82501337  0.60231989    -0.93400
O3377       O  0.82791989  0.78423747  0.58039432    -0.92200
C3378       C  0.75031874  0.77284351  0.00347047     1.16800
H3379       H  0.76125044  0.81977344  0.62379473     0.32800
H3380       H  0.80529721  0.74039298  0.60573874     0.43600
H3381       H  0.72197547  0.75496757  0.54487814     0.37200
H3382       H  0.72165406  0.73804034  0.66666349     0.33600
H3383       H  0.84049404  0.78687155  0.64359793     0.25400
H3384       H  0.75964574  0.67784587  0.64788617     0.31400
H3385       H  0.68287343  0.69898962  0.62009126     0.37300
H3386       H  0.81693901  0.82930629  0.61424345     0.31700
H3387       H  0.77277888  0.82581371  0.54904720     0.30600
H3388       H  0.70287567  0.82036836  0.53740836     0.32300
H3389       H  0.67308691  0.76471965  0.57544006     0.31300
H3390       H  0.82781844  0.76843208  0.57125430     0.35300
H3391       H  0.81091244  0.73699498  0.03622360     0.28000
H3392       H  0.69829240  0.77211477  0.69315563     0.32200
H3393       H  0.67840957  0.75330970  0.65059232     0.35100
H3394       H  0.74942412  0.83615850  0.53649449     0.27700
H3395       H  0.79314555  0.71366249  0.51517801     0.40600
H3396       H  0.81085996  0.72675790  0.67982737     0.30600
H3397       H  0.82908265  0.76415682  0.65556455     0.38200
H3398       H  0.66506299  0.73878493  0.57402991     0.30100
H3399       H  0.74707385  0.68815418  0.67684822     0.30200
H3400       H  0.69021276  0.79230746  0.67190110     0.30400
Zr3401     Zr  0.54685268  0.31832627  0.65224415     2.17500
O3402       O  0.52786277  0.29889714  0.69449572    -0.51900
O3403       O  0.58124100  0.29284211  0.64512043    -0.75100
O3404       O  0.53055914  0.28141216  0.63543525    -0.81900
O3405       O  0.59358423  0.35000865  0.68778061    -0.83700
O3406       O  0.51712583  0.28882079  0.58808902    -0.79300
O3407       O  0.56598149  0.32448967  0.70009829    -0.90900
O3408       O  0.57516057  0.29414683  0.59598581    -0.76900
O3409       O  0.54662799  0.31427941  0.59817883    -0.86400
O3410       O  0.58093561  0.33731121  0.63308722    -0.86100
O3411       O  0.51111226  0.33762273  0.63689500    -0.72800
O3412       O  0.54131213  0.35857473  0.66819457    -0.85000
Zr3413     Zr  0.54245320  0.38985431  0.57665455     2.26400
Zr3414     Zr  0.51136989  0.33148144  0.58285542     2.06300
Zr3415     Zr  0.57591289  0.37618339  0.65060470     2.10000
Zr3416     Zr  0.57992717  0.33304790  0.57901524     1.78800
O3417       O  0.56424018  0.39963797  0.69465441    -0.93800
O3418       O  0.58864241  0.30865067  0.53459415    -0.41600
O3419       O  0.57705443  0.37204699  0.59588066    -0.78200
O3420       O  0.54498152  0.34975808  0.56097233    -0.96900
O3421       O  0.50766102  0.37247977  0.59428482    -0.90200
O3422       O  0.54288869  0.39624735  0.63065094    -0.93000
C3423       C  0.58773993  0.28764388  0.61794418     1.00700
C3424       C  0.58627150  0.33274554  0.70321644     1.13600
C3425       C  0.52326462  0.27456345  0.60923931     1.04400
O3426       O  0.48939315  0.30648153  0.54888874    -0.95200
O3427       O  0.50480857  0.34661084  0.53257853    -0.90900
O3428       O  0.52151943  0.38189784  0.52939964    -0.84100
C3429       C  0.50964516  0.36509648  0.51814272     1.11100
O3430       O  0.48279323  0.36696623  0.68903466    -0.97200
Zr3431     Zr  0.50797190  0.37951960  0.64777892     1.88900
O3432       O  0.52223281  0.42604566  0.58971239    -0.73800
O3433       O  0.47128298  0.33428640  0.60051559    -0.53100
O3434       O  0.46777193  0.37968946  0.63085128    -0.97800
O3435       O  0.50871179  0.40143616  0.69564980    -0.55000
O3436       O  0.50280617  0.42182180  0.63399639    -0.74300
C3437       C  0.50992294  0.43458759  0.61161374     0.98000
O3438       O  0.54966048  0.41241297  0.53080947    -0.63200
O3439       O  0.61508862  0.38812372  0.66369889    -0.58000
O3440       O  0.58021594  0.40796860  0.57798815    -0.94600
O3441       O  0.59397065  0.40860635  0.62654759    -0.93100
O3442       O  0.62130594  0.33442747  0.58955861    -0.93400
O3443       O  0.59274331  0.34960493  0.53102006    -0.92200
C3444       C  0.59415269  0.41502776  0.59877853     1.16800
H3445       H  0.59563181  0.33115779  0.64009171     0.32800
H3446       H  0.54632413  0.34763883  0.53917632     0.43600
H3447       H  0.54450201  0.41238142  0.63640619     0.37200
H3448       H  0.49819610  0.32973775  0.64613500     0.33600
H3449       H  0.60071154  0.29751131  0.54137143     0.25400
H3450       H  0.46316955  0.34310034  0.58437799     0.31400
H3451       H  0.46341538  0.39629493  0.62907412     0.37300
H3452       H  0.62869269  0.32618560  0.57203352     0.31700
H3453       H  0.61480427  0.39085376  0.68602329     0.30600
H3454       H  0.56946575  0.41546610  0.68975984     0.32300
H3455       H  0.49408698  0.41067531  0.69587150     0.31300
H3456       H  0.59736662  0.36562670  0.53639442     0.35300
H3457       H  0.56276054  0.40431192  0.52031641     0.28000
H3458       H  0.53481458  0.28307481  0.69488419     0.32200
H3459       H  0.49217403  0.35528741  0.70012967     0.35100
H3460       H  0.62499940  0.37409289  0.66063264     0.27700
H3461       H  0.55614514  0.42737684  0.53772351     0.40600
H3462       H  0.50107901  0.29973812  0.53458999     0.30600
H3463       H  0.57459113  0.29921322  0.53159796     0.38200
H3464       H  0.52092078  0.41312025  0.69274526     0.30100
H3465       H  0.46522743  0.31834101  0.59867416     0.30200
H3466       H  0.51164289  0.29664331  0.68785245     0.30400
Zr3467     Zr  0.56932731  0.13227569  0.55288466     2.17500
O3468       O  0.57958287  0.16313946  0.01970644    -0.51900
O3469       O  0.60372522  0.15008980  0.57761674    -0.75100
O3470       O  0.54836763  0.16766711  0.56914548    -0.81900
O3471       O  0.61538344  0.09251299  0.51353700    -0.83700
O3472       O  0.52321690  0.15826643  0.60659617    -0.79300
O3473       O  0.59011640  0.11703196  0.00597339    -0.90900
O3474       O  0.61207090  0.12861133  0.61944856    -0.76900
O3475       O  0.56189691  0.12609085  0.60528033    -0.86400
O3476       O  0.59497993  0.10171858  0.56838693    -0.86100
O3477       O  0.52895353  0.12094807  0.55391512    -0.72800
O3478       O  0.55959154  0.09864764  0.52169920    -0.85000
Zr3479     Zr  0.53986348  0.05190163  0.59216633     2.26400
Zr3480     Zr  0.52215235  0.11543339  0.60716700     2.06300
Zr3481     Zr  0.58655251  0.06834828  0.53647716     2.10000
Zr3482     Zr  0.58722414  0.09539799  0.62050366     1.78800
O3483       O  0.58612007  0.06143611  0.97756050    -0.93800
O3484       O  0.58250699  0.11501469  0.66976054    -0.41600
O3485       O  0.57995378  0.06151265  0.58971791    -0.78200
O3486       O  0.54765613  0.08494259  0.62400400    -0.96900
O3487       O  0.51278666  0.08129435  0.57775422    -0.90200
O3488       O  0.54697526  0.05722961  0.53953338    -0.93000
C3489       C  0.61578874  0.14569039  0.60175963     1.00700
C3490       C  0.61135954  0.11077096  0.00589588     1.13600
C3491       C  0.53362306  0.17338198  0.59013720     1.04400
O3492       O  0.52058564  0.12939222  0.65978116    -0.95200
O3493       O  0.49935951  0.09013022  0.63882935    -0.90900
O3494       O  0.51156978  0.05284456  0.63181114    -0.84100
C3495       C  0.49849063  0.06833412  0.64432351     1.11100
O3496       O  0.51284869  0.11811606  0.98198501    -0.97200
Zr3497     Zr  0.52112340  0.08889176  0.02027780     1.88900
O3498       O  0.50954252  0.02904562  0.56926752    -0.73800
O3499       O  0.48287579  0.12834052  0.59511328    -0.53100
O3500       O  0.48134979  0.10350914  0.02394978    -0.97800
O3501       O  0.52715840  0.07725359  0.96722171    -0.55000
O3502       O  0.50060341  0.05074160  0.01592618    -0.74300
C3503       C  0.50078015  0.02819973  0.54248829     0.98000
O3504       O  0.54829320  0.02400936  0.63205323    -0.63200
O3505       O  0.62371292  0.05020269  0.54889148    -0.58000
O3506       O  0.55722878  0.01757303  0.56966504    -0.94600
O3507       O  0.58329422  0.02620074  0.53255397    -0.93100
O3508       O  0.62634744  0.07886433  0.62028633    -0.93400
O3509       O  0.59159205  0.06947637  0.66368314    -0.92200
C3510       C  0.57137399  0.01181793  0.54812847     1.16800
H3511       H  0.61103035  0.10593715  0.56657834     0.32800
H3512       H  0.54454439  0.08146742  0.64505907     0.43600
H3513       H  0.54444072  0.04364401  0.52700334     0.37200
H3514       H  0.51927545  0.13362559  0.54686438     0.33600
H3515       H  0.59829009  0.11532389  0.67858354     0.25400
H3516       H  0.47355398  0.11402658  0.59549236     0.31400
H3517       H  0.47179971  0.08958931  0.02699881     0.37300
H3518       H  0.63285418  0.08321243  0.64037912     0.31700
H3519       H  0.62715093  0.03944383  0.53163001     0.30600
H3520       H  0.57801570  0.04665748  0.97368117     0.32300
H3521       H  0.52837606  0.06010597  0.96750997     0.31300
H3522       H  0.59166642  0.05369082  0.65453761     0.35300
H3523       H  0.53943583  0.01002299  0.62628644     0.28000
H3524       H  0.58457125  0.17612622  0.03300043     0.32200
H3525       H  0.52499166  0.12991858  0.98504239     0.35100
H3526       H  0.62038047  0.03999651  0.56634747     0.27700
H3527       H  0.56476473  0.01951181  0.62872610     0.40600
H3528       H  0.50703577  0.14012966  0.66066290     0.30600
H3529       H  0.57898273  0.13142837  0.66481979     0.38200
H3530       H  0.54308061  0.08235667  0.96234901     0.30100
H3531       H  0.47767373  0.13729130  0.61334865     0.30200
H3532       H  0.56424608  0.16795749  0.01159524     0.30400
Zr3533     Zr  0.93467114  0.16074134  0.86050560     2.17500
O3534       O  0.94564753  0.17296224  0.91175173    -0.51900
O3535       O  0.90435574  0.18902394  0.84412261    -0.75100
O3536       O  0.95642634  0.19600684  0.85589915    -0.81900
O3537       O  0.88102329  0.12851762  0.87487406    -0.83700
O3538       O  0.97856420  0.19120505  0.81327116    -0.79300
O3539       O  0.90087874  0.15964315  0.89261086    -0.90900
O3540       O  0.91640888  0.19053739  0.79653541    -0.76900
O3541       O  0.94545860  0.16816939  0.80911019    -0.86400
O3542       O  0.90455145  0.14384331  0.83074218    -0.86100
O3543       O  0.97189830  0.14130244  0.85281858    -0.72800
O3544       O  0.93629574  0.11976282  0.87348877    -0.85000
Zr3545     Zr  0.95250503  0.09210739  0.78025251     2.26400
Zr3546     Zr  0.98210698  0.14931166  0.80108963     2.06300
Zr3547     Zr  0.90640025  0.10358111  0.84284910     2.10000
Zr3548     Zr  0.91583908  0.15072815  0.77988349     1.78800
O3549       O  0.91173320  0.07168044  0.87831084    -0.93800
O3550       O  0.92303323  0.17455483  0.73507253    -0.41600
O3551       O  0.92108620  0.11337123  0.79643194    -0.78200
O3552       O  0.95177556  0.13307336  0.76970353    -0.96900
O3553       O  0.98345914  0.10784119  0.80917112    -0.90200
O3554       O  0.94195358  0.08307307  0.83142663    -0.93000
C3555       C  0.90191949  0.19663731  0.81686693     1.00700
C3556       C  0.88231721  0.14787401  0.88974611     1.13600
C3557       C  0.96945992  0.20385583  0.83478493     1.04400
O3558       O  0.01516487  0.16995151  0.78012008    -0.95200
O3559       O  0.99094162  0.14227824  0.74763515    -0.90900
O3560       O  0.97615396  0.10663956  0.73784425    -0.84100
C3561       C  0.98611127  0.12551175  0.72940712     1.11100
O3562       O  0.99122074  0.11279473  0.90744305    -0.97200
Zr3563     Zr  0.97265638  0.09940788  0.86071469     1.88900
O3564       O  0.97212366  0.05550401  0.79682406    -0.73800
O3565       O  0.01735673  0.13963391  0.82911559    -0.53100
O3566       O  0.01491546  0.09705625  0.86117995    -0.97800
O3567       O  0.96055230  0.07603192  0.90381426    -0.55000
O3568       O  0.98296149  0.05845037  0.84610147    -0.74300
C3569       C  0.98089475  0.04645033  0.82117156     0.98000
O3570       O  0.95153611  0.06390903  0.73831554    -0.63200
O3571       O  0.87170066  0.08149250  0.85491983    -0.58000
O3572       O  0.91395650  0.08305467  0.76101940    -0.94600
O3573       O  0.88656374  0.09110370  0.79697505    -0.93100
O3574       O  0.87369055  0.15166311  0.77904422    -0.93400
O3575       O  0.90053907  0.13735980  0.73124516    -0.92200
C3576       C  0.89268671  0.08557828  0.76970998     1.16800
H3577       H  0.88929956  0.15075909  0.83291802     0.32800
H3578       H  0.95058351  0.13742203  0.74857045     0.43600
H3579       H  0.93994809  0.06661840  0.83433358     0.37200
H3580       H  0.98298177  0.14848377  0.86629639     0.33600
H3581       H  0.91019642  0.18618990  0.73488849     0.25400
H3582       H  0.02861796  0.13398982  0.81350689     0.31400
H3583       H  0.01868271  0.08142501  0.86907944     0.37300
H3584       H  0.86905673  0.13579148  0.78461560     0.31700
H3585       H  0.87267440  0.06700005  0.84255268     0.30600
H3586       H  0.90418759  0.07700108  0.89753142     0.32300
H3587       H  0.97520448  0.07053183  0.91317392     0.31300
H3588       H  0.91379593  0.12936649  0.72102900     0.35300
H3589       H  0.94663107  0.07273493  0.72013073     0.28000
H3590       H  0.94078589  0.18947872  0.91332357     0.32200
H3591       H  0.97895174  0.12172964  0.91845867     0.35100
H3592       H  0.85845581  0.09040493  0.84651891     0.27700
H3593       H  0.96798568  0.05977670  0.73425869     0.40600
H3594       H  0.00844291  0.18316084  0.76877506     0.30600
H3595       H  0.93703099  0.18361974  0.74000522     0.38200
H3596       H  0.95399885  0.06184362  0.89449252     0.30100
H3597       H  0.02351627  0.15468419  0.83631382     0.30200
H3598       H  0.96283316  0.17323533  0.91133739     0.30400
Zr3599     Zr  0.90561218  0.33894340  0.83169369     2.17500
O3600       O  0.89271370  0.30764075  0.79805406    -0.51900
O3601       O  0.88503215  0.32041712  0.87563910    -0.75100
O3602       O  0.93226477  0.30576871  0.83010015    -0.81900
O3603       O  0.85043967  0.37138649  0.83021769    -0.83700
O3604       O  0.96853722  0.31802822  0.84150823    -0.79300
O3605       O  0.86887018  0.34183101  0.80703861    -0.90900
O3606       O  0.88832514  0.34375213  0.91741940    -0.76900
O3607       O  0.93116634  0.34628225  0.87271089    -0.86400
O3608       O  0.88665586  0.36818080  0.86205690    -0.86100
O3609       O  0.94032243  0.35284389  0.80669188    -0.72800
O3610       O  0.90107504  0.37179740  0.79759784    -0.85000
Zr3611     Zr  0.94134133  0.42201322  0.84803866     2.26400
Zr3612     Zr  0.96565435  0.36002159  0.84853023     2.06300
Zr3613     Zr  0.88088179  0.40033333  0.82815751     2.10000
Zr3614     Zr  0.91236610  0.37586313  0.90265314     1.78800
O3615       O  0.86986861  0.41257226  0.77716526    -0.93800
O3616       O  0.93665818  0.35653651  0.94026360    -0.41600
O3617       O  0.90596653  0.40877019  0.87075295    -0.78200
O3618       O  0.94717437  0.38904891  0.88025349    -0.96900
O3619       O  0.96172839  0.39404330  0.81752370    -0.90200
O3620       O  0.91592250  0.41511845  0.80617389    -0.93000
C3621       C  0.88052785  0.32561882  0.90398094     1.00700
C3622       C  0.85118113  0.35030274  0.82077807     1.13600
C3623       C  0.95399024  0.30214913  0.83459407     1.04400
O3624       O  0.98594910  0.34271435  0.89137919    -0.95200
O3625       O  0.99471087  0.38533712  0.86939387    -0.90900
O3626       O  0.97996984  0.42231130  0.86870800    -0.84100
C3627       C  0.99574958  0.40720717  0.87482489     1.11100
O3628       O  0.93110144  0.36023346  0.73408466    -0.97200
Zr3629     Zr  0.93651538  0.38770653  0.77600226     1.88900
O3630       O  0.95906103  0.44586719  0.81025315    -0.73800
O3631       O  0.99784805  0.35285040  0.81331345    -0.53100
O3632       O  0.97325420  0.37632230  0.75212154    -0.97800
O3633       O  0.91419128  0.40390631  0.73395246    -0.55000
O3634       O  0.95457191  0.42672673  0.76521142    -0.74300
C3635       C  0.96107739  0.44461416  0.78130017     0.98000
O3636       O  0.95023548  0.45229466  0.88523622    -0.63200
O3637       O  0.84291028  0.41922842  0.83371156    -0.58000
O3638       O  0.91190299  0.45147923  0.83908932    -0.94600
O3639       O  0.87890578  0.43668672  0.85625257    -0.93100
O3640       O  0.88035530  0.39272733  0.93218718    -0.93400
O3641       O  0.92356246  0.40234655  0.94346244    -0.92200
C3642       C  0.89375764  0.45294916  0.85552368     1.16800
H3643       H  0.87241673  0.36333909  0.87157830     0.32800
H3644       H  0.95692027  0.39290768  0.89737039     0.43600
H3645       H  0.91281089  0.42869414  0.79404969     0.37200
H3646       H  0.94676730  0.34059947  0.79384761     0.33600
H3647       H  0.92795498  0.35813925  0.95971854     0.25400
H3648       H  0.99084526  0.34490903  0.79550779     0.31400
H3649       H  0.98049834  0.39105088  0.74599016     0.37300
H3650       H  0.86988748  0.39961087  0.91679615     0.31700
H3651       H  0.83310969  0.41252394  0.81744501     0.30600
H3652       H  0.86891906  0.42973360  0.77855143     0.32300
H3653       H  0.92534263  0.40446872  0.71673059     0.31300
H3654       H  0.93047226  0.41567634  0.93287627     0.35300
H3655       H  0.94041838  0.44903307  0.90315129     0.28000
H3656       H  0.89483758  0.29290469  0.80915482     0.32200
H3657       H  0.91940902  0.34927197  0.74178381     0.35100
H3658       H  0.83643058  0.41312819  0.85293641     0.27700
H3659       H  0.94398702  0.46692748  0.87674038     0.40600
H3660       H  0.97345658  0.33691771  0.90474401     0.30600
H3661       H  0.93581039  0.33982243  0.93505858     0.38200
H3662       H  0.91145108  0.42041514  0.73957143     0.30100
H3663       H  0.00201905  0.36837237  0.80573744     0.30200
H3664       H  0.90410585  0.30702554  0.78109297     0.30400
Zr3665     Zr  0.71467878  0.22130934  0.03764023     2.17500
O3666       O  0.70359566  0.19545776  0.57536645    -0.51900
O3667       O  0.68218968  0.24742067  0.56061983    -0.75100
O3668       O  0.73098899  0.23316121  0.58698935    -0.81900
O3669       O  0.67702795  0.19573407  0.97451113    -0.83700
O3670       O  0.76454365  0.25340053  0.58251635    -0.79300
O3671       O  0.68571396  0.19241252  0.02484805    -0.90900
O3672       O  0.68234068  0.27763856  0.03389296    -0.76900
O3673       O  0.73261134  0.25840460  0.03669349    -0.86400
O3674       O  0.69682397  0.24090245  0.99612716    -0.86100
O3675       O  0.75575328  0.21491404  0.03418304    -0.72800
O3676       O  0.72208691  0.19789389  0.99377355    -0.85000
Zr3677     Zr  0.76446822  0.24534324  0.94386699     2.26400
Zr3678     Zr  0.77371740  0.25243600  0.02920786     2.06300
Zr3679     Zr  0.70630861  0.21873701  0.95137086     2.10000
Zr3680     Zr  0.71443434  0.27772318  0.99585297     1.78800
O3681       O  0.70444638  0.18281528  0.92163078    -0.93800
O3682       O  0.72110767  0.31061894  0.03004459    -0.41600
O3683       O  0.72416022  0.25584483  0.94997220    -0.78200
O3684       O  0.75562654  0.27109885  0.98667460    -0.96900
O3685       O  0.78169103  0.22701388  0.98680592    -0.90200
O3686       O  0.74646689  0.20887750  0.94667080    -0.93000
C3687       C  0.67343642  0.26258828  0.05200533     1.00700
C3688       C  0.67406251  0.18704074  0.00086724     1.13600
C3689       C  0.74842961  0.24375288  0.59837956     1.04400
O3690       O  0.77842924  0.29100754  0.05146041    -0.95200
O3691       O  0.80680967  0.27012772  0.99988451    -0.90900
O3692       O  0.80022858  0.26526995  0.94908270    -0.84100
C3693       C  0.81238382  0.27261553  0.97130244     1.11100
O3694       O  0.75285963  0.15974807  0.02577968    -0.97200
Zr3695     Zr  0.76253194  0.19077736  0.99086109     1.88900
O3696       O  0.79223962  0.21626121  0.92275207    -0.73800
O3697       O  0.80817663  0.23825987  0.05557388    -0.53100
O3698       O  0.79668578  0.18066808  0.02070706    -0.97800
O3699       O  0.75538647  0.15361482  0.96570243    -0.55000
O3700       O  0.79164279  0.18508629  0.95358894    -0.74300
C3701       C  0.79950150  0.19595949  0.93080317     0.98000
O3702       O  0.77453105  0.27606449  0.90842222    -0.63200
O3703       O  0.66968395  0.23387839  0.93161790    -0.58000
O3704       O  0.74666227  0.23993349  0.89435357    -0.94600
O3705       O  0.70932154  0.22853678  0.89782938    -0.93100
O3706       O  0.68094231  0.28786688  0.96476263    -0.93400
O3707       O  0.71935736  0.31484280  0.97072349    -0.92200
C3708       C  0.72704493  0.23474002  0.88249484     1.16800
H3709       H  0.68016365  0.24193822  0.99800067     0.32800
H3710       H  0.76286844  0.28588385  0.98340327     0.43600
H3711       H  0.74925292  0.19961515  0.92849545     0.37200
H3712       H  0.76083165  0.21164744  0.54972436     0.33600
H3713       H  0.71964463  0.30430075  0.05087458     0.25400
H3714       H  0.81737945  0.23867766  0.53165656     0.31400
H3715       H  0.80942127  0.18976081  0.01174624     0.37300
H3716       H  0.66728684  0.28318813  0.97692414     0.31700
H3717       H  0.66232873  0.22035031  0.92161337     0.30600
H3718       H  0.69365721  0.18626052  0.90469286     0.32300
H3719       H  0.75742011  0.15647177  0.94364429     0.31300
H3720       H  0.73338658  0.31269144  0.95785606     0.35300
H3721       H  0.78074270  0.26808458  0.88991441     0.28000
H3722       H  0.69641909  0.20399564  0.59282034     0.32200
H3723       H  0.73730012  0.16407489  0.03384719     0.35100
H3724       H  0.65988055  0.23726571  0.94972820     0.27700
H3725       H  0.75956703  0.28308012  0.90203181     0.40600
H3726       H  0.79392080  0.29855195  0.54801994     0.30600
H3727       H  0.73780266  0.31402471  0.02782801     0.38200
H3728       H  0.73850526  0.15120781  0.96815925     0.30100
H3729       H  0.81312211  0.25350510  0.56138529     0.30200
H3730       H  0.71859667  0.18947489  0.58311151     0.30400
Zr3731     Zr  0.70823834  0.24925129  0.69331578     2.17500
O3732       O  0.69456343  0.27996062  0.65995465    -0.51900
O3733       O  0.68516907  0.22075313  0.66726756    -0.75100
O3734       O  0.72783752  0.24719163  0.64408554    -0.81900
O3735       O  0.66542922  0.26452304  0.75873001    -0.83700
O3736       O  0.76709067  0.24265247  0.64755514    -0.79300
O3737       O  0.67219681  0.26926680  0.70783233    -0.90900
O3738       O  0.69694447  0.18609330  0.68585869    -0.76900
O3739       O  0.73736646  0.21964387  0.69136247    -0.86400
O3740       O  0.69604814  0.22221783  0.73099283    -0.86100
O3741       O  0.74487178  0.26747985  0.70156546    -0.72800
O3742       O  0.70681035  0.26919139  0.74111397    -0.85000
Zr3743     Zr  0.76054249  0.23293222  0.78594033     2.26400
Zr3744     Zr  0.77422938  0.23709097  0.70243656     2.06300
Zr3745     Zr  0.69687494  0.24182339  0.77978053     2.10000
Zr3746     Zr  0.72492680  0.19257474  0.72789501     1.78800
O3747       O  0.67371563  0.26366563  0.81711803    -0.93800
O3748       O  0.74480788  0.16597919  0.69258152    -0.41600
O3749       O  0.72559002  0.21188151  0.77718667    -0.78200
O3750       O  0.76182785  0.21002880  0.73987714    -0.96900
O3751       O  0.77209142  0.25964861  0.74821508    -0.90200
O3752       O  0.73173909  0.26250473  0.78802125    -0.93000
C3753       C  0.68444039  0.19860377  0.66769190     1.00700
C3754       C  0.66037501  0.27267062  0.73249810     1.13600
C3755       C  0.74819493  0.24504973  0.63216424     1.04400
O3756       O  0.79248267  0.20446641  0.67544621    -0.95200
O3757       O  0.81045332  0.22646313  0.73171209    -0.90900
O3758       O  0.80043177  0.22428241  0.78176323    -0.84100
C3759       C  0.81515307  0.22251942  0.76021508     1.11100
O3760       O  0.72340123  0.31714270  0.71596948    -0.97200
Zr3761     Zr  0.74206274  0.28852467  0.74858107     1.88900
O3762       O  0.78094380  0.26443824  0.81113356    -0.73800
O3763       O  0.80182955  0.26587288  0.68536551    -0.53100
O3764       O  0.76855812  0.31642670  0.72677572    -0.97800
O3765       O  0.71971647  0.31585834  0.78031528    -0.55000
O3766       O  0.76878885  0.29740268  0.78809576    -0.74300
C3767       C  0.78102786  0.28651888  0.80762807     0.98000
O3768       O  0.77258994  0.19947736  0.81576825    -0.63200
O3769       O  0.66971285  0.21024080  0.78689282    -0.58000
O3770       O  0.74619298  0.23526481  0.83651366    -0.94600
O3771       O  0.70692898  0.23605170  0.83421461    -0.93100
O3772       O  0.69552838  0.16937738  0.75279743    -0.93400
O3773       O  0.74097515  0.15842636  0.75288930    -0.92200
C3774       C  0.72624721  0.23534317  0.84900384     1.16800
H3775       H  0.68067708  0.21642370  0.72696221     0.32800
H3776       H  0.77337021  0.19779813  0.74178324     0.43600
H3777       H  0.73134595  0.27071916  0.80738683     0.37200
H3778       H  0.74805689  0.27814777  0.68531006     0.33600
H3779       H  0.74288049  0.17310873  0.67228997     0.25400
H3780       H  0.80499554  0.27541510  0.70376799     0.31400
H3781       H  0.78396391  0.30867629  0.72747759     0.37300
H3782       H  0.69020581  0.15844335  0.73680591     0.31700
H3783       H  0.66548353  0.21104917  0.80880928     0.30600
H3784       H  0.65940263  0.25458472  0.81978095     0.32300
H3785       H  0.72810024  0.31674620  0.79994373     0.31300
H3786       H  0.74681051  0.16435816  0.77267209     0.35300
H3787       H  0.78026590  0.20590067  0.83411812     0.28000
H3788       H  0.69098648  0.27197298  0.64048490     0.32200
H3789       H  0.70659708  0.31395172  0.71749822     0.35100
H3790       H  0.65546394  0.21529123  0.77617133     0.27700
H3791       H  0.75807173  0.19256012  0.82339512     0.40600
H3792       H  0.80808761  0.21001317  0.66981681     0.30600
H3793       H  0.76150335  0.16774805  0.69718939     0.38200
H3794       H  0.70520213  0.30764641  0.78518652     0.30100
H3795       H  0.81641829  0.25699578  0.68169306     0.30200
H3796       H  0.70843673  0.28933432  0.65553695     0.30400
Zr3797     Zr  0.36680308  0.00180956  0.68570049     2.17500
O3798       O  0.38322235  0.98842277  0.63717889    -0.51900
O3799       O  0.39642262  0.98359310  0.71710077    -0.75100
O3800       O  0.40394852  0.01995443  0.67995925    -0.81900
O3801       O  0.31618218  0.96503403  0.66552196    -0.83700
O3802       O  0.40036754  0.05532039  0.70271163    -0.79300
O3803       O  0.35522658  0.96304889  0.67218450    -0.90900
O3804       O  0.39116069  0.00140990  0.76286467    -0.76900
O3805       O  0.37210817  0.02805684  0.72680251    -0.86400
O3806       O  0.34167602  0.98808765  0.72453609    -0.86100
O3807       O  0.35789500  0.03995914  0.66707573    -0.72800
O3808       O  0.32843933  0.00356574  0.66507186    -0.85000
Zr3809     Zr  0.29740374  0.05508081  0.72576425     2.26400
Zr3810     Zr  0.36039670  0.06576793  0.71065650     2.06300
Zr3811     Zr  0.30261284  0.99196559  0.70503149     2.10000
Zr3812     Zr  0.34874231  0.01409017  0.76573280     1.78800
O3813       O  0.27731868  0.96052410  0.68898444    -0.93800
O3814       O  0.36830831  0.03846859  0.80309959    -0.41600
O3815       O  0.30887476  0.01795558  0.74682020    -0.78200
O3816       O  0.33524219  0.05226788  0.75009259    -0.96900
O3817       O  0.32358880  0.06665069  0.68747396    -0.90200
O3818       O  0.29306896  0.02896694  0.68381572    -0.93000
C3819       C  0.40411532  0.98993514  0.74327321     1.00700
C3820       C  0.33627915  0.95597790  0.66032471     1.13600
C3821       C  0.41237051  0.03900319  0.68998449     1.04400
O3822       O  0.37571281  0.08483495  0.75600971    -0.95200
O3823       O  0.33703944  0.10184215  0.71093008    -0.90900
O3824       O  0.30984375  0.09217076  0.74447575    -0.84100
C3825       C  0.31883971  0.10696029  0.72686236     1.11100
O3826       O  0.32952506  0.01905192  0.59958115    -0.97200
Zr3827     Zr  0.31975854  0.04100684  0.64573064     1.88900
O3828       O  0.28276971  0.08552712  0.68974966    -0.73800
O3829       O  0.38118075  0.09270157  0.67835721    -0.53100
O3830       O  0.34238080  0.06262300  0.60882589    -0.97800
O3831       O  0.28475732  0.03384517  0.61615169    -0.55000
O3832       O  0.30108305  0.07868361  0.64449491    -0.74300
C3833       C  0.28853958  0.09144655  0.66229793     0.98000
O3834       O  0.27424104  0.06248218  0.77162596    -0.63200
O3835       O  0.30207225  0.96727016  0.74979971    -0.58000
O3836       O  0.25776403  0.04104635  0.72497620    -0.94600
O3837       O  0.26091019  0.00307905  0.71099021    -0.93100
O3838       O  0.34583714  0.97582756  0.78850852    -0.93400
O3839       O  0.33045725  0.01401958  0.81590127    -0.92200
C3840       C  0.24872231  0.02139186  0.71825307     1.16800
H3841       H  0.34553661  0.97221755  0.72957095     0.32800
H3842       H  0.33580278  0.06251810  0.76758286     0.43600
H3843       H  0.27776268  0.02979241  0.67505650     0.37200
H3844       H  0.36916586  0.04420846  0.65182360     0.33600
H3845       H  0.37684273  0.02740312  0.81620081     0.25400
H3846       H  0.36921418  0.09921827  0.66462662     0.31400
H3847       H  0.34164229  0.07896878  0.61605192     0.37300
H3848       H  0.36082430  0.96795660  0.78375809     0.31700
H3849       H  0.28549362  0.96618200  0.75554965     0.30600
H3850       H  0.26719415  0.95733795  0.70669257     0.32300
H3851       H  0.27277386  0.04459927  0.62468070     0.31300
H3852       H  0.32281587  0.02946434  0.81790614     0.35300
H3853       H  0.27283244  0.04708185  0.78126640     0.28000
H3854       H  0.39716042  0.97917212  0.64270901     0.32200
H3855       H  0.34427673  0.01090429  0.60443467     0.35100
H3856       H  0.30634718  0.95158560  0.74197250     0.27700
H3857       H  0.28452480  0.07114435  0.78556015     0.40600
H3858       H  0.38504241  0.09779096  0.74817663     0.30600
H3859       H  0.38062528  0.04619456  0.79129256     0.38200
H3860       H  0.27969553  0.01818539  0.62218391     0.30100
H3861       H  0.38534921  0.10577991  0.69201004     0.30200
H3862       H  0.38933670  0.00248806  0.62736865     0.30400
Zr3863     Zr  0.03394500  0.06206534  0.67059842     2.17500
O3864       O  0.01040411  0.07755740  0.71144288    -0.51900
O3865       O  0.00403715  0.04031935  0.64696333    -0.75100
O3866       O  0.00912407  0.08967053  0.64523618    -0.81900
O3867       O  0.05586267  0.03722651  0.72857155    -0.83700
O3868       O  0.03059260  0.11378677  0.61598934    -0.79300
O3869       O  0.02107385  0.03526416  0.70835111    -0.90900
O3870       O  0.02261032  0.01759489  0.61191853    -0.76900
O3871       O  0.04494751  0.06422029  0.61856931    -0.86400
O3872       O  0.05664928  0.02724192  0.66255031    -0.86100
O3873       O  0.05491699  0.09736513  0.66599090    -0.72800
O3874       O  0.06507169  0.06255515  0.70654943    -0.85000
Zr3875     Zr  0.12308350  0.06738193  0.64192298     2.26400
Zr3876     Zr  0.06930098  0.09753299  0.61403780     2.06300
Zr3877     Zr  0.08977315  0.02946964  0.69613134     2.10000
Zr3878     Zr  0.06584832  0.02933499  0.61052562     1.78800
O3879       O  0.09919653  0.01380301  0.74603604    -0.93800
O3880       O  0.05203279  0.03751292  0.55927704    -0.41600
O3881       O  0.10040438  0.03188900  0.64340358    -0.78200
O3882       O  0.09159625  0.06285209  0.60523589    -0.96900
O3883       O  0.09912668  0.10033236  0.65116393    -0.90200
O3884       O  0.11044361  0.06503024  0.69333548    -0.93000
C3885       C  0.00372256  0.02454271  0.62640887     1.00700
C3886       C  0.03663925  0.02664698  0.72548552     1.13600
C3887       C  0.01181367  0.10813692  0.62949931     1.04400
O3888       O  0.06158638  0.08971360  0.56039770    -0.95200
O3889       O  0.10371939  0.11816162  0.59600090    -0.90900
O3890       O  0.13582929  0.09637384  0.60589352    -0.84100
C3891       C  0.12576754  0.11434864  0.59477668     1.11100
O3892       O  0.05899940  0.11419903  0.74043677    -0.97200
Zr3893     Zr  0.08533528  0.09758719  0.70221731     1.88900
O3894       O  0.14641666  0.09698218  0.67085337    -0.73800
O3895       O  0.06782802  0.13863133  0.60132214    -0.53100
O3896       O  0.07934036  0.13932565  0.69766544    -0.97800
O3897       O  0.09538561  0.08890299  0.75490112    -0.55000
O3898       O  0.12251803  0.11361811  0.70641244    -0.74300
C3899       C  0.14200202  0.11167045  0.69291679     0.98000
O3900       O  0.15199231  0.05036128  0.60724280    -0.63200
O3901       O  0.08680408  0.98783210  0.68666215    -0.58000
O3902       O  0.15137260  0.04296813  0.66716000    -0.94600
O3903       O  0.13220922  0.02435916  0.70494486    -0.93100
O3904       O  0.06825766  0.98713074  0.61253928    -0.93400
O3905       O  0.08971652  0.01000817  0.57169046    -0.92200
C3906       C  0.15097709  0.03012686  0.69081048     1.16800
H3907       H  0.04785979  0.01345880  0.66596769     0.32800
H3908       H  0.09795488  0.06291898  0.58479814     0.43600
H3909       H  0.12313266  0.06581248  0.70755825     0.37200
H3910       H  0.04512526  0.11071833  0.67048220     0.33600
H3911       H  0.04472822  0.02288985  0.55247631     0.25400
H3912       H  0.05654744  0.14016029  0.58447485     0.31400
H3913       H  0.08871446  0.14369301  0.67968647     0.37300
H3914       H  0.05471981  0.98169055  0.60076431     0.31700
H3915       H  0.08709085  0.98621327  0.66421434     0.30600
H3916       H  0.09914770  0.99670782  0.74366267     0.32300
H3917       H  0.11231428  0.08580642  0.75475132     0.31300
H3918       H  0.10585619  0.01245176  0.57852270     0.35300
H3919       H  0.14601249  0.05339089  0.58650606     0.28000
H3920       H  0.99507432  0.07918470  0.70161862     0.32200
H3921       H  0.04861233  0.10135375  0.74596098     0.35100
H3922       H  0.10200219  0.98129985  0.69299688     0.27700
H3923       H  0.16576146  0.06036946  0.60924034     0.40600
H3924       H  0.07286688  0.09932077  0.54929229     0.30600
H3925       H  0.03879089  0.04845845  0.56220899     0.38200
H3926       H  0.08843120  0.07356806  0.75878187     0.30100
H3927       H  0.06049151  0.14662597  0.61906965     0.30200
H3928       H  0.01641718  0.09345681  0.71350413     0.30400
Zr3929     Zr  0.45100510  0.41062277  0.95093140     2.17500
O3930       O  0.47187472  0.38076125  0.97865518    -0.51900
O3931       O  0.48405234  0.43554188  0.94323520    -0.75100
O3932       O  0.47238058  0.40180989  0.90434442    -0.81900
O3933       O  0.41933308  0.42500639  0.00834325    -0.83700
O3934       O  0.46049187  0.36916675  0.88343667    -0.79300
O3935       O  0.45670647  0.42861904  0.00034748    -0.90900
O3936       O  0.47215576  0.45850904  0.90451345    -0.76900
O3937       O  0.44483975  0.41563611  0.89800555    -0.86400
O3938       O  0.43054736  0.44728200  0.94816809    -0.86100
O3939       O  0.42927781  0.37770832  0.93269346    -0.72800
O3940       O  0.41445662  0.40772987  0.97729644    -0.85000
Zr3941     Zr  0.36619593  0.41708397  0.90370308     2.26400
Zr3942     Zr  0.42116230  0.38455123  0.87923819     2.06300
Zr3943     Zr  0.39313989  0.44366955  0.97243300     2.10000
Zr3944     Zr  0.42829156  0.45270149  0.89504861     1.78800
O3945       O  0.37501586  0.45385514  0.02094693    -0.93800
O3946       O  0.44619290  0.45188040  0.84461210    -0.41600
O3947       O  0.38963716  0.44995477  0.91891313    -0.78200
O3948       O  0.40257258  0.42204906  0.87589097    -0.96900
O3949       O  0.38628760  0.38093637  0.90779165    -0.90200
O3950       O  0.37239873  0.41109643  0.95634524    -0.93000
C3951       C  0.48833986  0.45105613  0.92318034     1.00700
C3952       C  0.43856683  0.43423603  0.01557307     1.13600
C3953       C  0.47663029  0.38110518  0.89541425     1.04400
O3954       O  0.43398958  0.39548063  0.82852852    -0.95200
O3955       O  0.38732846  0.36838044  0.85243783    -0.90900
O3956       O  0.35525319  0.39024366  0.86361388    -0.84100
C3957       C  0.36545785  0.37314880  0.84995392     1.11100
O3958       O  0.41156246  0.37469821  0.49767759    -0.97200
Zr3959     Zr  0.39356566  0.37515334  0.96023103     1.88900
O3960       O  0.33524821  0.39345481  0.92779973    -0.73800
O3961       O  0.42453522  0.34373435  0.86407721    -0.53100
O3962       O  0.38743357  0.33659597  0.93851525    -0.97800
O3963       O  0.37805266  0.40136655  0.51864859    -0.55000
O3964       O  0.35284662  0.36942603  0.96188607    -0.74300
C3965       C  0.33492858  0.37794586  0.94898660     0.98000
O3966       O  0.34707902  0.43852549  0.86308316    -0.63200
O3967       O  0.40217081  0.48456624  0.97870354    -0.58000
O3968       O  0.33600507  0.44174286  0.92602099    -0.94600
O3969       O  0.35021088  0.45227089  0.97216089    -0.93100
O3970       O  0.43167196  0.49279590  0.91249376    -0.93400
O3971       O  0.40958792  0.47896889  0.85932594    -0.92200
C3972       C  0.33342335  0.45094331  0.95260185     1.16800
H3973       H  0.43894083  0.45968556  0.95722646     0.32800
H3974       H  0.39901151  0.42507110  0.85480344     0.43600
H3975       H  0.35860356  0.41104466  0.96887289     0.37200
H3976       H  0.43818557  0.36351598  0.93510521     0.33600
H3977       H  0.46049370  0.44234594  0.84697203     0.25400
H3978       H  0.43632729  0.34308704  0.84758825     0.31400
H3979       H  0.39493898  0.34997607  0.44643110     0.37300
H3980       H  0.44191376  0.50012468  0.89729172     0.31700
H3981       H  0.40224388  0.49067003  0.95771675     0.30600
H3982       H  0.37137516  0.43877413  0.03029448     0.32300
H3983       H  0.39212946  0.40812898  0.52774456     0.31300
H3984       H  0.39353971  0.47321089  0.85754154     0.35300
H3985       H  0.34987072  0.45504968  0.86814106     0.28000
H3986       H  0.47906296  0.38904904  0.99601874     0.32200
H3987       H  0.42502482  0.38470942  0.50187614     0.35100
H3988       H  0.38800981  0.49156260  0.98804798     0.27700
H3989       H  0.35678668  0.43545309  0.84474272     0.40600
H3990       H  0.41957873  0.39663737  0.81642816     0.30600
H3991       H  0.43589607  0.44216061  0.83194287     0.38200
H3992       H  0.36624456  0.41398718  0.51998953     0.30100
H3993       H  0.43183831  0.33571336  0.88153104     0.30200
H3994       H  0.46420047  0.40521442  0.49657269     0.30400
Zr3995     Zr  0.11331002  0.48218542  0.95457011     2.17500
O3996       O  0.09048800  0.50156000  0.91528352    -0.51900
O3997       O  0.08402606  0.49816133  0.98974705    -0.75100
O3998       O  0.07887174  0.46133581  0.94054003    -0.81900
O3999       O  0.16302134  0.51386426  0.92301270    -0.83700
O4000       O  0.08454588  0.42388135  0.95464140    -0.79300
O4001       O  0.12661447  0.52019878  0.93951638    -0.90900
O4002       O  0.09285032  0.49565111  0.53722261    -0.76900
O4003       O  0.11023631  0.45632942  0.99612039    -0.86400
O4004       O  0.14094766  0.49681731  0.99027568    -0.86100
O4005       O  0.12326242  0.44418479  0.93392107    -0.72800
O4006       O  0.15074984  0.47927413  0.93036768    -0.85000
Zr4007     Zr  0.18606075  0.43047108  0.98859669     2.26400
Zr4008     Zr  0.12234066  0.41864022  0.97749025     2.06300
Zr4009     Zr  0.17918708  0.49290329  0.96617258     2.10000
Zr4010     Zr  0.13410972  0.48144825  0.52848280     1.78800
O4011       O  0.20456643  0.52222441  0.94501436    -0.93800
O4012       O  0.12208288  0.46425307  0.57643558    -0.41600
O4013       O  0.17513248  0.46824500  0.00921550    -0.78200
O4014       O  0.14784329  0.44224572  0.51556993    -0.96900
O4015       O  0.15878277  0.41741307  0.95223778    -0.90200
O4016       O  0.18880188  0.45520520  0.94580517    -0.93000
C4017       C  0.07993576  0.49611267  0.01836465     1.00700
C4018       C  0.14266248  0.52265594  0.91971516     1.13600
C4019       C  0.07244412  0.44024982  0.94286210     1.04400
O4020       O  0.10978571  0.41704339  0.54053452    -0.95200
O4021       O  0.14606037  0.38849478  0.48207797    -0.90900
O4022       O  0.17556705  0.40208210  0.50899760    -0.84100
C4023       C  0.16616031  0.38563855  0.49420900     1.11100
O4024       O  0.14766875  0.45577091  0.86050607    -0.97200
Zr4025     Zr  0.16061143  0.44229260  0.91014997     1.88900
O4026       O  0.20190795  0.40086304  0.95158236    -0.73800
O4027       O  0.10393819  0.38225867  0.96282214    -0.53100
O4028       O  0.14005423  0.41369793  0.87944375    -0.97800
O4029       O  0.19028592  0.45969314  0.87826701    -0.55000
O4030       O  0.18474836  0.40806632  0.90606050    -0.74300
C4031       C  0.19741665  0.39557108  0.92345501     0.98000
O4032       O  0.20926859  0.43589559  0.52766677    -0.63200
O4033       O  0.18361903  0.52345998  0.00454025    -0.58000
O4034       O  0.22540939  0.44511967  0.98584560    -0.94600
O4035       O  0.22151087  0.48228384  0.96971920    -0.93100
O4036       O  0.13880110  0.52229373  0.54173525    -0.93400
O4037       O  0.16082510  0.48582188  0.57102241    -0.92200
C4038       C  0.23411118  0.46447056  0.97754101     1.16800
H4039       H  0.13716081  0.51266143  0.99594858     0.32800
H4040       H  0.15060411  0.43431389  0.53450796     0.43600
H4041       H  0.20376769  0.45410958  0.93594249     0.37200
H4042       H  0.11267354  0.43951365  0.91802632     0.33600
H4043       H  0.11773177  0.47764546  0.58971823     0.25400
H4044       H  0.08832639  0.38252095  0.97230476     0.31400
H4045       H  0.13654576  0.40100928  0.89371875     0.37300
H4046       H  0.12730716  0.52535984  0.55818685     0.31700
H4047       H  0.17107796  0.53492623  0.00053248     0.30600
H4048       H  0.19660839  0.53731208  0.94897018     0.32300
H4049       H  0.20451397  0.45025335  0.88152369     0.31300
H4050       H  0.17453213  0.47613416  0.56528400     0.35300
H4051       H  0.21036549  0.45211930  0.53521366     0.28000
H4052       H  0.07545697  0.50574923  0.92502270     0.32200
H4053       H  0.13050386  0.45552509  0.86143561     0.35100
H4054       H  0.17938263  0.51623736  0.02410474     0.27700
H4055       H  0.20040594  0.42804041  0.54384173     0.40600
H4056       H  0.09275676  0.41937319  0.54179508     0.30600
H4057       H  0.10709758  0.45683717  0.57175048     0.38200
H4058       H  0.19346887  0.47489184  0.88811049     0.30100
H4059       H  0.10116006  0.38335567  0.94058254     0.30200
H4060       H  0.08675347  0.48954175  0.89981129     0.30400
Zr4061     Zr  0.22809374  0.22823481  0.73408744     2.17500
O4062       O  0.19375699  0.23189791  0.70212280    -0.51900
O4063       O  0.25004005  0.19695069  0.70996383    -0.75100
O4064       O  0.23930568  0.24351231  0.68636474    -0.81900
O4065       O  0.19948665  0.18431880  0.78390041    -0.83700
O4066       O  0.26363479  0.27386568  0.69221525    -0.79300
O4067       O  0.20515640  0.19410696  0.73426573    -0.90900
O4068       O  0.28323225  0.21176756  0.72489108    -0.76900
O4069       O  0.26769180  0.23917781  0.73884497    -0.86400
O4070       O  0.24342955  0.20493523  0.77428114    -0.86100
O4071       O  0.22687080  0.26928315  0.74364378    -0.72800
O4072       O  0.20376241  0.23734326  0.77718812    -0.85000
Zr4073     Zr  0.25905419  0.26639482  0.83394387     2.26400
Zr4074     Zr  0.26678300  0.27981105  0.74864523     2.06300
Zr4075     Zr  0.21934320  0.21379441  0.81723769     2.10000
Zr4076     Zr  0.28263371  0.21667624  0.77973028     1.78800
O4077       O  0.17917495  0.21498998  0.83473920    -0.93800
O4078       O  0.31946137  0.19712826  0.76766623    -0.41600
O4079       O  0.25946092  0.22509145  0.82409318    -0.78200
O4080       O  0.28282935  0.25742914  0.78994232    -0.96900
O4081       O  0.24419348  0.28942743  0.79342608    -0.90200
O4082       O  0.21952611  0.25501507  0.82913631    -0.93000
C4083       C  0.27199865  0.19517065  0.71294369     1.00700
C4084       C  0.19688827  0.18099646  0.75474258     1.13600
C4085       C  0.25221554  0.25927791  0.67558305     1.04400
O4086       O  0.30457654  0.28343703  0.72433033    -0.95200
O4087       O  0.29188874  0.30546631  0.77839135    -0.90900
O4088       O  0.28977491  0.29498001  0.82835198    -0.84100
C4089       C  0.29825358  0.30702277  0.80646614     1.11100
O4090       O  0.17263790  0.28336784  0.75389626    -0.97200
Zr4091     Zr  0.20486620  0.27834023  0.78905044     1.88900
O4092       O  0.23985891  0.29988046  0.85862774    -0.73800
O4093       O  0.25461350  0.31819337  0.73169851    -0.53100
O4094       O  0.19839362  0.31676129  0.76775881    -0.97800
O4095       O  0.16818971  0.27214142  0.81542882    -0.55000
O4096       O  0.20749511  0.30649854  0.83100113    -0.74300
C4097       C  0.22112228  0.31145830  0.85319296     0.98000
O4098       O  0.28959853  0.26628983  0.87221553    -0.63200
O4099       O  0.22707719  0.17593639  0.83952559    -0.58000
O4100       O  0.24779353  0.24484686  0.87919204    -0.94600
O4101       O  0.22389210  0.21416790  0.87313766    -0.93100
O4102       O  0.27894144  0.17676450  0.79688124    -0.93400
O4103       O  0.31735088  0.22546078  0.80940077    -0.92200
C4104       C  0.23586245  0.22796606  0.88990768     1.16800
H4105       H  0.24279587  0.18860413  0.76918540     0.32800
H4106       H  0.29866580  0.26204698  0.79311065     0.43600
H4107       H  0.21107313  0.25829901  0.84777232     0.37200
H4108       H  0.21998942  0.27715563  0.72646346     0.33600
H4109       H  0.31539725  0.18161952  0.75959593     0.25400
H4110       H  0.25909502  0.31863519  0.70988590     0.31400
H4111       H  0.21040283  0.32666574  0.77710601     0.37300
H4112       H  0.28913837  0.17571216  0.81492851     0.31700
H4113       H  0.21154615  0.17007418  0.84507177     0.30600
H4114       H  0.17876863  0.22694970  0.85113145     0.32300
H4115       H  0.17214574  0.27123543  0.83732707     0.31300
H4116       H  0.32760923  0.23457586  0.79599625     0.35300
H4117       H  0.28190173  0.27133365  0.89143430     0.28000
H4118       H  0.19633022  0.22068091  0.68516145     0.32200
H4119       H  0.16994175  0.26766591  0.74536604     0.35100
H4120       H  0.23223359  0.16591100  0.82226044     0.27700
H4121       H  0.29368817  0.24972290  0.87522984     0.40600
H4122       H  0.31054582  0.26728750  0.72243044     0.30600
H4123       H  0.32580768  0.20548703  0.74994934     0.38200
H4124       H  0.16375519  0.25615235  0.80962245     0.30100
H4125       H  0.23746982  0.31780088  0.73152125     0.30200
H4126       H  0.19469876  0.24737010  0.69261246     0.30400
Zr4127     Zr  0.25995096  0.26466173  0.48641246     2.17500
O4128       O  0.29206691  0.25419240  0.94972946    -0.51900
O4129       O  0.23871030  0.29861341  0.46894978    -0.75100
O4130       O  0.24859016  0.24257963  0.93554657    -0.81900
O4131       O  0.28580707  0.30935195  0.53744405    -0.83700
O4132       O  0.22594103  0.21097471  0.93998985    -0.79300
O4133       O  0.28258229  0.29841784  0.48763905    -0.90900
O4134       O  0.20486923  0.28327759  0.47976907    -0.76900
O4135       O  0.22083956  0.25209485  0.49009392    -0.86400
O4136       O  0.24382390  0.28647190  0.52837010    -0.86100
O4137       O  0.26305288  0.22348025  0.49277313    -0.72800
O4138       O  0.28483572  0.25539402  0.52851419    -0.85000
Zr4139     Zr  0.23074550  0.22309695  0.58265931     2.26400
Zr4140     Zr  0.22358281  0.21130233  0.49689826     2.06300
Zr4141     Zr  0.26844810  0.27772993  0.57004996     2.10000
Zr4142     Zr  0.20520615  0.27297405  0.53278696     1.78800
O4143       O  0.30834792  0.28040520  0.58770212    -0.93800
O4144       O  0.16455408  0.27663219  0.51843734    -0.41600
O4145       O  0.22894972  0.26445255  0.57595667    -0.78200
O4146       O  0.20653513  0.23217093  0.53979217    -0.96900
O4147       O  0.24644622  0.20130244  0.54084411    -0.90200
O4148       O  0.26979060  0.23620581  0.57864684    -0.93000
C4149       C  0.21668633  0.30043946  0.47117384     1.00700
C4150       C  0.28908364  0.31250020  0.50833567     1.13600
C4151       C  0.23657595  0.22641647  0.92392401     1.04400
O4152       O  0.18674085  0.20410095  0.47184742    -0.95200
O4153       O  0.19842012  0.18478671  0.52504263    -0.90900
O4154       O  0.20138503  0.19340831  0.57561878    -0.84100
C4155       C  0.19270050  0.18189618  0.55319034     1.11100
O4156       O  0.31952361  0.21379289  0.50452937    -0.97200
Zr4157     Zr  0.28534020  0.21398249  0.53736723     1.88900
O4158       O  0.25048675  0.18962210  0.60454699    -0.73800
O4159       O  0.23927510  0.17454196  0.47752482    -0.53100
O4160       O  0.29144025  0.17739940  0.50998828    -0.97800
O4161       O  0.32141418  0.21673669  0.56599707    -0.55000
O4162       O  0.28315304  0.18402717  0.57666831    -0.74300
C4163       C  0.26931288  0.17834229  0.59837095     0.98000
O4164       O  0.20156143  0.22395841  0.62308450    -0.63200
O4165       O  0.25639081  0.31381157  0.59549401    -0.58000
O4166       O  0.24126640  0.24202859  0.62994606    -0.94600
O4167       O  0.26445267  0.27349014  0.62591522    -0.93100
O4168       O  0.20363053  0.31379233  0.54798483    -0.93400
O4169       O  0.17343058  0.26936283  0.56911924    -0.92200
C4170       C  0.25297552  0.25872565  0.64166543     1.16800
H4171       H  0.24365012  0.30303860  0.52501209     0.32800
H4172       H  0.19072921  0.22749386  0.54310128     0.43600
H4173       H  0.27836262  0.23275045  0.59696573     0.37200
H4174       H  0.27023451  0.21638934  0.47493781     0.33600
H4175       H  0.16324458  0.29177732  0.50810327     0.25400
H4176       H  0.23602519  0.16329035  0.49384414     0.31400
H4177       H  0.27793365  0.16786755  0.51556120     0.37300
H4178       H  0.18731381  0.31869225  0.54463807     0.31700
H4179       H  0.26660040  0.32592164  0.58720990     0.30600
H4180       H  0.31021613  0.26743012  0.60214790     0.32300
H4181       H  0.31677785  0.21685121  0.58776320     0.31300
H4182       H  0.18046059  0.27272861  0.58921650     0.35300
H4183       H  0.18648296  0.22616746  0.61270812     0.28000
H4184       H  0.29226746  0.23811444  0.94155215     0.32200
H4185       H  0.31531117  0.22410011  0.48747569     0.35100
H4186       H  0.24089483  0.31743782  0.58699035     0.27700
H4187       H  0.20123102  0.20794702  0.63108310     0.40600
H4188       H  0.17537524  0.21397916  0.48317504     0.30600
H4189       H  0.16253904  0.26490221  0.50200975     0.38200
H4190       H  0.32697400  0.23263613  0.56230341     0.30100
H4191       H  0.22863421  0.17015076  0.46081619     0.30200
H4192       H  0.30583801  0.25474930  0.96315059     0.30400
C4193       C  0.18698920  0.36037691  0.89444830    -0.20900
C4194       C  0.20448016  0.37261095  0.90969031    -0.07500
C4195       C  0.22745046  0.36392672  0.90782765     0.13400
C4196       C  0.23237214  0.34373149  0.88992493    -0.21000
C4197       C  0.21486264  0.33202499  0.87344947    -0.07500
C4198       C  0.19168844  0.34060970  0.87631992     0.13400
C4199       C  0.17145693  0.32942885  0.86034470    -0.24300
H4200       H  0.16926164  0.36685721  0.89610056     0.14700
H4201       H  0.25014996  0.33755309  0.88798578     0.14700
C4202       C  0.24679309  0.37646084  0.92355935    -0.24300
H4203       H  0.17303676  0.33163995  0.83532147     0.04900
H4204       H  0.17078102  0.31071467  0.86585551     0.08100
H4205       H  0.15458043  0.33740757  0.86738120     0.08100
H4206       H  0.24401420  0.37620858  0.94861949     0.08100
H4207       H  0.24734142  0.39472775  0.91579918     0.08100
H4208       H  0.26383806  0.36820735  0.91833476     0.04900
C4209       C  0.16856122  0.33928574  0.96224040    -0.20900
C4210       C  0.18000032  0.36411556  0.48741591    -0.07500
C4211       C  0.20336284  0.36096959  0.49732786     0.13400
C4212       C  0.21570391  0.34091450  0.48850553    -0.21000
C4213       C  0.20535128  0.32343085  0.47117360    -0.07500
C4214       C  0.17998525  0.31824534  0.95448367     0.13400
C4215       C  0.16789045  0.30060145  0.93481193    -0.24300
H4216       H  0.15117210  0.34244078  0.95380007     0.14700
H4217       H  0.23317611  0.33818094  0.49694944     0.14700
C4218       C  0.21576234  0.37813439  0.51753624    -0.24300
H4219       H  0.15116510  0.30749270  0.92594382     0.04900
H4220       H  0.16419089  0.28479284  0.94804287     0.08100
H4221       H  0.17914712  0.29575211  0.91509527     0.08100
H4222       H  0.20593545  0.38091033  0.53913049     0.08100
H4223       H  0.21790836  0.39471084  0.50532812     0.08100
H4224       H  0.23344766  0.37198450  0.52379846     0.04900
C4225       C  0.35398150  0.33266077  0.83805740    -0.20900
C4226       C  0.35035924  0.35650550  0.83318812    -0.07500
C4227       C  0.33062147  0.36367663  0.81625243     0.13400
C4228       C  0.31432150  0.34706307  0.80676274    -0.21000
C4229       C  0.31700417  0.32354127  0.81416151    -0.07500
C4230       C  0.33755099  0.31616078  0.82892984     0.13400
C4231       C  0.34230880  0.29084177  0.83496676    -0.24300
H4232       H  0.36913166  0.32697594  0.85066625     0.14700
H4233       H  0.29894795  0.35259079  0.79450169     0.14700
C4234       C  0.32673444  0.38871532  0.80775451    -0.24300
H4235       H  0.35992348  0.28795327  0.84451854     0.04900
H4236       H  0.34114154  0.28069885  0.81335232     0.08100
H4237       H  0.32954451  0.28425550  0.85162373     0.08100
H4238       H  0.34221233  0.39519782  0.79550867     0.08100
H4239       H  0.32338429  0.39955705  0.82838905     0.08100
H4240       H  0.31150511  0.39083264  0.79253792     0.04900
C4241       C  0.27016111  0.47392120  0.94772551    -0.20900
C4242       C  0.26028931  0.46522536  0.97458614    -0.07500
C4243       C  0.27553489  0.45477358  0.99607136     0.13400
C4244       C  0.29959411  0.45232842  0.98949144    -0.21000
C4245       C  0.30905222  0.45895008  0.96129117    -0.07500
C4246       C  0.29397609  0.47042423  0.94047578     0.13400
C4247       C  0.30270886  0.47866214  0.91008286    -0.24300
H4248       H  0.25882351  0.48204079  0.93118374     0.14700
H4249       H  0.31080527  0.44370981  0.00573081     0.14700
C4250       C  0.26116582  0.47172204  0.51455819    -0.24300
H4251       H  0.28935403  0.48912931  0.89800908     0.04900
H4252       H  0.30722087  0.46357500  0.89517802     0.08100
H4253       H  0.31820267  0.48964676  0.91337170     0.08100
H4254       H  0.25114076  0.45558886  0.51713640     0.08100
H4255       H  0.25027602  0.48693323  0.52156478     0.08100
H4256       H  0.27623924  0.47065580  0.53021043     0.04900
C4257       C  0.30372086  0.35092462  0.94203563    -0.20900
C4258       C  0.31323570  0.36801618  0.96037597    -0.07500
C4259       C  0.29833333  0.37466747  0.48178196     0.13400
C4260       C  0.29116893  0.35572880  0.49985213    -0.21000
C4261       C  0.30072284  0.33330211  0.49539111    -0.07500
C4262       C  0.29340805  0.33135216  0.95469730     0.13400
C4263       C  0.28510503  0.31338160  0.93202328    -0.24300
H4264       H  0.30686160  0.35154945  0.91763559     0.14700
H4265       H  0.27787753  0.35846992  0.51713514     0.14700
C4266       C  0.28863041  0.39849032  0.48911961    -0.24300
H4267       H  0.28652978  0.31930193  0.90806923     0.04900
H4268       H  0.26656534  0.30969887  0.93605376     0.08100
H4269       H  0.29599410  0.29744103  0.93342694     0.08100
H4270       H  0.29495940  0.41174937  0.47301834     0.08100
H4271       H  0.29369633  0.40370106  0.51258975     0.08100
H4272       H  0.26939680  0.39828293  0.48770155     0.04900
C4273       C  0.14992046  0.15155673  0.70971176    -0.20900
C4274       C  0.15894739  0.12899369  0.70459094    -0.07500
C4275       C  0.18053174  0.12306406  0.71778175     0.13400
C4276       C  0.19226152  0.13971029  0.73604029    -0.21000
C4277       C  0.18246414  0.16192479  0.74212575    -0.07500
C4278       C  0.16107322  0.16776553  0.72842289     0.13400
C4279       C  0.14977931  0.19127601  0.73366932    -0.24300
H4280       H  0.13326188  0.15624293  0.69993385     0.14700
H4281       H  0.20922231  0.13549741  0.74519445     0.14700
C4282       C  0.19082112  0.09917474  0.71307079    -0.24300
H4283       H  0.13272049  0.19275243  0.72209209     0.04900
H4284       H  0.16099721  0.20510346  0.72467689     0.08100
H4285       H  0.14693213  0.19424581  0.75847461     0.08100
H4286       H  0.19360326  0.09579429  0.68834456     0.08100
H4287       H  0.17876728  0.08607721  0.72214650     0.08100
H4288       H  0.20774680  0.09720895  0.72484095     0.04900
C4289       C  0.15626603  0.12665315  0.55754459    -0.20900
C4290       C  0.14090127  0.13246160  0.58151486    -0.07500
C4291       C  0.14181103  0.15497013  0.59464669     0.13400
C4292       C  0.15864016  0.17061804  0.58455417    -0.21000
C4293       C  0.17430466  0.16480864  0.56088705    -0.07500
C4294       C  0.17248725  0.14274152  0.54647676     0.13400
C4295       C  0.18794520  0.13576931  0.52004182    -0.24300
H4296       H  0.15560391  0.10939568  0.54750591     0.14700
H4297       H  0.15960322  0.18759917  0.59535564     0.14700
C4298       C  0.12564084  0.16229938  0.62021143    -0.24300
H4299       H  0.18469828  0.11769696  0.51224038     0.04900
H4300       H  0.20644726  0.13694067  0.52678408     0.08100
H4301       H  0.18454241  0.14735043  0.50045522     0.08100
H4302       H  0.12750971  0.15023497  0.63964690     0.08100
H4303       H  0.10746582  0.16218962  0.61201679     0.08100
H4304       H  0.12930167  0.18012669  0.62864563     0.04900
C4305       C  0.31684419  0.14680961  0.70468302    -0.20900
C4306       C  0.30649613  0.12967441  0.72277672    -0.07500
C4307       C  0.28361997  0.13395043  0.73437429     0.13400
C4308       C  0.27218282  0.15469217  0.72745905    -0.21000
C4309       C  0.28308101  0.17211914  0.71119356    -0.07500
C4310       C  0.30557293  0.16819089  0.69930182     0.13400
C4311       C  0.31755522  0.18642730  0.68086644    -0.24300
H4312       H  0.33395017  0.14365891  0.69502807     0.14700
H4313       H  0.25492002  0.15793470  0.73659306     0.14700
C4314       C  0.27071050  0.11737559  0.75455748    -0.24300
H4315       H  0.33456365  0.18006203  0.67188834     0.04900
H4316       H  0.32074312  0.20205348  0.69513135     0.08100
H4317       H  0.30649852  0.19140230  0.66125892     0.08100
H4318       H  0.28075838  0.11419912  0.77567423     0.08100
H4319       H  0.26745904  0.10093029  0.74207400     0.08100
H4320       H  0.25347100  0.12436353  0.76185462     0.04900
C4321       C  0.18342027  0.03536276  0.72754804    -0.20900
C4322       C  0.17417843  0.02300154  0.70276359    -0.07500
C4323       C  0.18898361  0.00779221  0.68601388     0.13400
C4324       C  0.21285676  0.00649080  0.69298329    -0.21000
C4325       C  0.22266187  0.02042289  0.71603776    -0.07500
C4326       C  0.20739704  0.03448106  0.73428362     0.13400
C4327       C  0.21608471  0.04875673  0.76080370    -0.24300
H4328       H  0.17203365  0.04690892  0.74056379     0.14700
H4329       H  0.22413667  0.99545468  0.67908879     0.14700
C4330       C  0.17956508  0.99314404  0.66038208    -0.24300
H4331       H  0.20156875  0.05700606  0.77390164     0.04900
H4332       H  0.22723529  0.06293614  0.75259257     0.08100
H4333       H  0.22601601  0.03749468  0.77662035     0.08100
H4334       H  0.17229384  0.00439510  0.64229063     0.08100
H4335       H  0.16566769  0.98187406  0.66929919     0.08100
H4336       H  0.19324238  0.98180394  0.64993622     0.04900
C4337       C  0.25691556  0.14624913  0.63350591    -0.20900
C4338       C  0.27490856  0.15712954  0.61708523    -0.07500
C4339       C  0.29754178  0.14711620  0.61863774     0.13400
C4340       C  0.30114514  0.12657025  0.63511017    -0.21000
C4341       C  0.28300379  0.11509044  0.65005261    -0.07500
C4342       C  0.26064818  0.12537186  0.64968703     0.13400
C4343       C  0.24053672  0.11384053  0.66500309    -0.24300
H4344       H  0.23953704  0.15363959  0.63283881     0.14700
H4345       H  0.31846351  0.11898432  0.63578635     0.14700
C4346       C  0.31825923  0.15767372  0.60313910    -0.24300
H4347       H  0.22411325  0.12385898  0.66197908     0.04900
H4348       H  0.24387761  0.11243619  0.68982535     0.08100
H4349       H  0.23817494  0.09621470  0.65508112     0.08100
H4350       H  0.32020600  0.17598555  0.61068940     0.08100
H4351       H  0.31622360  0.15675882  0.57800698     0.08100
H4352       H  0.33466623  0.14831654  0.60867128     0.04900
C4353       C  0.01907323  0.40720600  0.92112412    -0.20900
C4354       C  0.01564430  0.41556158  0.89161814    -0.07500
C4355       C  0.02961817  0.43324937  0.88007914     0.13400
C4356       C  0.04705805  0.44225839  0.89850101    -0.21000
C4357       C  0.05088455  0.43366822  0.92792117    -0.07500
C4358       C  0.03634434  0.41633056  0.93975300     0.13400
C4359       C  0.03808925  0.40747645  0.97193150    -0.24300
H4360       H  0.00772895  0.39398047  0.93000593     0.14700
H4361       H  0.05852282  0.45521059  0.88926276     0.14700
C4362       C  0.02695360  0.44163764  0.84784409    -0.24300
H4363       H  0.02091172  0.40925822  0.98336576     0.04900
H4364       H  0.04332777  0.38885770  0.97143855     0.08100
H4365       H  0.05055489  0.41721235  0.98613026     0.08100
H4366       H  0.00953270  0.44967197  0.84466117     0.08100
H4367       H  0.02915178  0.42668907  0.83183903     0.08100
H4368       H  0.04012779  0.45478006  0.84199534     0.04900
C4369       C  0.84978116  0.27416391  0.94224426    -0.20900
C4370       C  0.83337911  0.28566330  0.96129585    -0.07500
C4371       C  0.83338198  0.31015410  0.96208006     0.13400
C4372       C  0.84894687  0.32239399  0.94334614    -0.21000
C4373       C  0.86451405  0.31095842  0.92295465    -0.07500
C4374       C  0.86508461  0.28637361  0.92295348     0.13400
C4375       C  0.88183611  0.27291257  0.90285550    -0.24300
H4376       H  0.84998740  0.25539258  0.94162783     0.14700
H4377       H  0.84837484  0.34120775  0.94391837     0.14700
C4378       C  0.81618273  0.32342490  0.98176383    -0.24300
H4379       H  0.88072694  0.25392105  0.90661498     0.04900
H4380       H  0.89987642  0.27828895  0.90781832     0.08100
H4381       H  0.87788016  0.27618204  0.87852305     0.08100
H4382       H  0.81876314  0.31871523  0.00600566     0.08100
H4383       H  0.79820189  0.31911098  0.97491940     0.08100
H4384       H  0.81826464  0.34248580  0.97975822     0.04900
C4385       C  0.83750064  0.31082373  0.83136103    -0.20900
C4386       C  0.83199127  0.33448041  0.82731459    -0.07500
C4387       C  0.80857963  0.34180699  0.82838299     0.13400
C4388       C  0.79141268  0.32492285  0.82752804    -0.21000
C4389       C  0.79726176  0.30116000  0.82482916    -0.07500
C4390       C  0.82035093  0.29393231  0.83016805     0.13400
C4391       C  0.82736934  0.26870082  0.83226367    -0.24300
H4392       H  0.85545251  0.30533810  0.83342454     0.14700
H4393       H  0.77341979  0.33040090  0.82533625     0.14700
C4394       C  0.80148844  0.36707780  0.82817089    -0.24300
H4395       H  0.84601041  0.26650955  0.83808140     0.04900
H4396       H  0.82453070  0.25974011  0.81011846     0.08100
H4397       H  0.81704111  0.26034511  0.85039632     0.08100
H4398       H  0.80833488  0.37546099  0.80738012     0.08100
H4399       H  0.80829835  0.37592854  0.84882446     0.08100
H4400       H  0.78232082  0.36940446  0.82833166     0.04900
C4401       C  0.97046378  0.11865473  0.67767931    -0.20900
C4402       C  0.98719189  0.12966352  0.69616086    -0.07500
C4403       C  0.00279884  0.14510411  0.68196807     0.13400
C4404       C  0.00399274  0.14499583  0.64987291    -0.21000
C4405       C  0.99399757  0.12637098  0.63398590    -0.07500
C4406       C  0.97304141  0.11823230  0.64592077     0.13400
C4407       C  0.95696392  0.10435453  0.62618858    -0.24300
H4408       H  0.95626775  0.10933146  0.68792941     0.14700
H4409       H  0.01749472  0.15479375  0.63878105     0.14700
C4410       C  0.01898261  0.16032405  0.69983482    -0.24300
H4411       H  0.94287067  0.09648313  0.63981258     0.04900
H4412       H  0.96673132  0.09020785  0.61424079     0.08100
H4413       H  0.94899645  0.11585813  0.60889029     0.08100
H4414       H  0.02981360  0.14956363  0.71522944     0.08100
H4415       H  0.00877200  0.17328999  0.71334075     0.08100
H4416       H  0.03083550  0.16997864  0.68465292     0.04900
C4417       C  0.85758950  0.18313035  0.89319332    -0.20900
C4418       C  0.86051481  0.15939082  0.89992991    -0.07500
C4419       C  0.84184669  0.14726998  0.91261279     0.13400
C4420       C  0.82138210  0.15950460  0.91990278    -0.21000
C4421       C  0.81888494  0.18362145  0.91478618    -0.07500
C4422       C  0.83678170  0.19519283  0.89941789     0.13400
C4423       C  0.83417404  0.21996258  0.88921382    -0.24300
H4424       H  0.87154128  0.19230164  0.88228640     0.14700
H4425       H  0.80741402  0.15015952  0.93067055     0.14700
C4426       C  0.84364790  0.12176814  0.91975130    -0.24300
H4427       H  0.84989932  0.22604575  0.87711502     0.04900
H4428       H  0.83106773  0.23160166  0.90907121     0.08100
H4429       H  0.81932412  0.22133603  0.87325290     0.08100
H4430       H  0.85886073  0.11847574  0.93462741     0.08100
H4431       H  0.84548127  0.11144262  0.89836751     0.08100
H4432       H  0.82794400  0.11556976  0.93178340     0.04900
C4433       C  0.96539815  0.24045557  0.80624129    -0.20900
C4434       C  0.97144349  0.22944301  0.83354421    -0.07500
C4435       C  0.97489264  0.24313503  0.86012613     0.13400
C4436       C  0.97041521  0.26717539  0.85929656    -0.21000
C4437       C  0.96243121  0.27780119  0.83265630    -0.07500
C4438       C  0.96078540  0.26446981  0.80550834     0.13400
C4439       C  0.95404640  0.27549602  0.77581333    -0.24300
H4440       H  0.96276971  0.23002370  0.78583938     0.14700
H4441       H  0.97203764  0.27754585  0.87994678     0.14700
C4442       C  0.98330320  0.23250543  0.88940071    -0.24300
H4443       H  0.95423777  0.26269476  0.75667297     0.04900
H4444       H  0.96642622  0.28945158  0.77027823     0.08100
H4445       H  0.93629791  0.28295119  0.77757270     0.08100
H4446       H  0.99997451  0.22309270  0.88518797     0.08100
H4447       H  0.97035464  0.22031967  0.89849178     0.08100
H4448       H  0.98626504  0.24592534  0.90730078     0.04900
C4449       C  0.85790149  0.22900670  0.76755545    -0.20900
C4450       C  0.83845669  0.21483212  0.77123516    -0.07500
C4451       C  0.83986729  0.19653997  0.79272547     0.13400
C4452       C  0.85964206  0.19384135  0.81092098    -0.21000
C4453       C  0.87956803  0.20688301  0.80601839    -0.07500
C4454       C  0.87862824  0.22481923  0.78406525     0.13400
C4455       C  0.89932531  0.23993813  0.77867904    -0.24300
H4456       H  0.85674237  0.24361637  0.75226225     0.14700
H4457       H  0.86023527  0.17965933  0.82692032     0.14700
C4458       C  0.82109753  0.17872420  0.79631078    -0.24300
H4459       H  0.89537583  0.25390783  0.76216014     0.04900
H4460       H  0.91404653  0.22943783  0.76935599     0.08100
H4461       H  0.90464940  0.24820283  0.80050858     0.08100
H4462       H  0.80675307  0.18086863  0.77978092     0.08100
H4463       H  0.81404609  0.17959020  0.81989093     0.08100
H4464       H  0.82856115  0.16107671  0.79234353     0.04900
C4465       C  0.44491911  0.06605292  0.69345850    -0.20900
C4466       C  0.43722091  0.04370929  0.68538948    -0.07500
C4467       C  0.45286171  0.02793909  0.67086039     0.13400
C4468       C  0.47427457  0.03612456  0.66123320    -0.21000
C4469       C  0.47990280  0.05976366  0.66413455    -0.07500
C4470       C  0.46571101  0.07459470  0.68230721     0.13400
C4471       C  0.47143555  0.09962860  0.68914161    -0.24300
H4472       H  0.43377727  0.07782367  0.70646903     0.14700
H4473       H  0.48564172  0.02428422  0.64865693     0.14700
C4474       C  0.44714422  0.00295982  0.66370858    -0.24300
H4475       H  0.45932005  0.10752215  0.70622208     0.04900
H4476       H  0.46982535  0.11018569  0.66823965     0.08100
H4477       H  0.48925171  0.10078197  0.69852337     0.08100
H4478       H  0.43324322  0.00218917  0.64634708     0.08100
H4479       H  0.44173395  0.99401017  0.68479211     0.08100
H4480       H  0.46229564  0.99318960  0.65408902     0.04900
C4481       C  0.67225078  0.16325837  0.63878123    -0.20900
C4482       C  0.66804378  0.18671554  0.64606674    -0.07500
C4483       C  0.64818743  0.19781027  0.63285875     0.13400
C4484       C  0.63220254  0.18451190  0.61579759    -0.21000
C4485       C  0.63565227  0.16059070  0.61096788    -0.07500
C4486       C  0.65672052  0.15030861  0.62110102     0.13400
C4487       C  0.66338051  0.12545751  0.61390175    -0.24300
H4488       H  0.68781496  0.15472707  0.64716581     0.14700
H4489       H  0.61627984  0.19255722  0.60776558     0.14700
C4490       C  0.64293606  0.22334164  0.63750479    -0.24300
H4491       H  0.68060105  0.12488372  0.60242888     0.04900
H4492       H  0.65099879  0.11689204  0.59835512     0.08100
H4493       H  0.66443455  0.11546721  0.63536428     0.08100
H4494       H  0.65691142  0.23380754  0.62719724     0.08100
H4495       H  0.64128790  0.22748754  0.66219663     0.08100
H4496       H  0.62639470  0.22858715  0.62651959     0.04900
C4497       C  0.66420871  0.14927337  0.51682557    -0.20900
C4498       C  0.65745383  0.16808332  0.00269244    -0.07500
C4499       C  0.63628596  0.16847699  0.98656320     0.13400
C4500       C  0.62260123  0.14870038  0.98641159    -0.21000
C4501       C  0.62911390  0.12872591  0.00245081    -0.07500
C4502       C  0.65029999  0.12948985  0.51596624     0.13400
C4503       C  0.66005505  0.10715167  0.52856390    -0.24300
H4504       H  0.68144413  0.14820609  0.52659713     0.14700
H4505       H  0.60633803  0.14900971  0.97406470     0.14700
C4506       C  0.62757663  0.18975873  0.97016310    -0.24300
H4507       H  0.67804964  0.10923098  0.53707032     0.04900
H4508       H  0.66055249  0.09361230  0.51034321     0.08100
H4509       H  0.64934689  0.10117847  0.54788677     0.08100
H4510       H  0.63866843  0.19317770  0.95006763     0.08100
H4511       H  0.62753850  0.20499623  0.98583870     0.08100
H4512       H  0.60958105  0.18756596  0.96171795     0.04900
C4513       C  0.52492170  0.38049149  0.94554011    -0.20900
C4514       C  0.50165905  0.36694203  0.48619829    -0.07500
C4515       C  0.48250523  0.35431093  0.47464558     0.13400
C4516       C  0.49588237  0.34817957  0.91796178    -0.21000
C4517       C  0.49835218  0.37008385  0.90540038    -0.07500
C4518       C  0.51626741  0.38431769  0.91623065     0.13400
C4519       C  0.52535015  0.40379282  0.89717779    -0.24300
H4520       H  0.52864194  0.39107218  0.47457542     0.14700
H4521       H  0.48356068  0.33625490  0.90798505     0.14700
C4522       C  0.47023741  0.33578749  0.49227666    -0.24300
H4523       H  0.53934406  0.41330651  0.90910487     0.04900
H4524       H  0.51140033  0.41631765  0.89137096     0.08100
H4525       H  0.53262871  0.39648769  0.87559250     0.08100
H4526       H  0.46385466  0.34282711  0.51449185     0.08100
H4527       H  0.48232184  0.32093410  0.49548948     0.08100
H4528       H  0.45494561  0.32895421  0.47990449     0.04900
C4529       C  0.59926742  0.29511539  0.72381561    -0.20900
C4530       C  0.60312481  0.31917261  0.72147619    -0.07500
C4531       C  0.62527828  0.32783408  0.72895774     0.13400
C4532       C  0.64377593  0.31213862  0.73274358    -0.21000
C4533       C  0.64023029  0.28817212  0.73106833    -0.07500
C4534       C  0.61769106  0.27949834  0.72840496     0.13400
C4535       C  0.61335554  0.25376790  0.72869986    -0.24300
H4536       H  0.58224691  0.28818124  0.71915014     0.14700
H4537       H  0.66109872  0.31862804  0.73672814     0.14700
C4538       C  0.62994479  0.35331475  0.73326285    -0.24300
H4539       H  0.59466072  0.24986550  0.72587203     0.04900
H4540       H  0.61919918  0.24643652  0.75073015     0.08100
H4541       H  0.62313032  0.24511194  0.70979803     0.08100
H4542       H  0.61383542  0.36405045  0.73302459     0.08100
H4543       H  0.64199609  0.35926841  0.71524193     0.08100
H4544       H  0.63809340  0.35619603  0.75587644     0.04900
C4545       C  0.51788030  0.23342598  0.62644276    -0.20900
C4546       C  0.52354910  0.24875626  0.60285774    -0.07500
C4547       C  0.53188828  0.23899674  0.57497412     0.13400
C4548       C  0.53446630  0.21465194  0.57166425    -0.21000
C4549       C  0.52882770  0.19916401  0.59521132    -0.07500
C4550       C  0.52012669  0.20899557  0.62301257     0.13400
C4551       C  0.51372861  0.19411577  0.64970170    -0.24300
H4552       H  0.51179650  0.24068798  0.64799138     0.14700
H4553       H  0.54118344  0.20767846  0.55029014     0.14700
C4554       C  0.53911040  0.25408497  0.54882925    -0.24300
H4555       H  0.50806005  0.20473191  0.66975646     0.04900
H4556       H  0.52894578  0.18344821  0.65672030     0.08100
H4557       H  0.49909239  0.18272451  0.64339223     0.08100
H4558       H  0.55258627  0.26639059  0.55645670     0.08100
H4559       H  0.52384049  0.26383259  0.54014475     0.08100
H4560       H  0.54646962  0.24369872  0.52951351     0.04900
C4561       C  0.65169748  0.28475882  0.59980736    -0.20900
C4562       C  0.65092565  0.27153298  0.57281229    -0.07500
C4563       C  0.63048370  0.25951077  0.56555747     0.13400
C4564       C  0.61072098  0.26263180  0.58389888    -0.21000
C4565       C  0.61070283  0.27740630  0.60961782    -0.07500
C4566       C  0.63200474  0.28740620  0.61880812     0.13400
C4567       C  0.63470250  0.30137852  0.64776921    -0.24300
H4568       H  0.66776233  0.29305735  0.60611258     0.14700
H4569       H  0.59458576  0.25475012  0.57685111     0.14700
C4570       C  0.63058295  0.23802079  0.03565038    -0.24300
H4571       H  0.64910573  0.29388475  0.66134417     0.04900
H4572       H  0.61914512  0.30121113  0.66244596     0.08100
H4573       H  0.63893066  0.31961694  0.64238024     0.08100
H4574       H  0.64302594  0.22347904  0.03946140     0.08100
H4575       H  0.63508667  0.24688372  0.01410754     0.08100
H4576       H  0.61306058  0.23047041  0.03295899     0.04900
C4577       C  0.00945028  0.50098013  0.52999482    -0.20900
C4578       C  0.00774553  0.52012708  0.03750512    -0.07500
C4579       C  0.02711379  0.53274773  0.04862661     0.13400
C4580       C  0.05037078  0.52403492  0.04431106    -0.21000
C4581       C  0.05527701  0.50282391  0.02884392    -0.07500
C4582       C  0.03263895  0.49274061  0.52658505     0.13400
C4583       C  0.03677755  0.46781402  0.51715823    -0.24300
H4584       H  0.99527367  0.48947014  0.52464259     0.14700
H4585       H  0.06483979  0.53447727  0.05169447     0.14700
C4586       C  0.02336969  0.55623669  0.06328067    -0.24300
H4587       H  0.02028713  0.45828725  0.51428300     0.04900
H4588       H  0.04734321  0.45887282  0.53470794     0.08100
H4589       H  0.03180758  0.46808218  0.97902563     0.08100
H4590       H  0.00823858  0.56498832  0.57454878     0.08100
H4591       H  0.01452145  0.56802847  0.04702911     0.08100
H4592       H  0.04003546  0.56423242  0.07003034     0.04900
C4593       C  0.91079757  0.50525619  0.90017691    -0.20900
C4594       C  0.91243262  0.49530307  0.92923765    -0.07500
C4595       C  0.90407097  0.47254111  0.93385320     0.13400
C4596       C  0.89422095  0.46062522  0.90943954    -0.21000
C4597       C  0.89398642  0.47000979  0.88018741    -0.07500
C4598       C  0.90173860  0.49279198  0.87550837     0.13400
C4599       C  0.90088856  0.50414103  0.84472821    -0.24300
H4600       H  0.91645338  0.52289612  0.89663862     0.14700
H4601       H  0.88894767  0.44280598  0.91259288     0.14700
C4602       C  0.90684722  0.45980131  0.96362293    -0.24300
H4603       H  0.89062149  0.52056219  0.84647027     0.04900
H4604       H  0.89257120  0.49302804  0.82719409     0.08100
H4605       H  0.91876053  0.50813395  0.83700755     0.08100
H4606       H  0.89559852  0.46760695  0.98164558     0.08100
H4607       H  0.92529529  0.46006023  0.97083369     0.08100
H4608       H  0.90166234  0.44137542  0.96156350     0.04900
C4609       C  0.79742262  0.67124039  0.96454086    -0.20900
C4610       C  0.80997299  0.68708221  0.94623296    -0.07500
C4611       C  0.83459529  0.68539189  0.94745159     0.13400
C4612       C  0.84544728  0.66737698  0.96401706    -0.21000
C4613       C  0.83299869  0.65072849  0.98056532    -0.07500
C4614       C  0.80856159  0.65333499  0.98163209     0.13400
C4615       C  0.79418788  0.63682561  0.99987971    -0.24300
H4616       H  0.77864155  0.67239315  0.96495212     0.14700
H4617       H  0.86420635  0.66572699  0.96310456     0.14700
C4618       C  0.84998052  0.70242228  0.93149850    -0.24300
H4619       H  0.77536544  0.64110598  0.99843963     0.04900
H4620       H  0.79932897  0.63781998  0.02423396     0.08100
H4621       H  0.79695864  0.61878700  0.99129381     0.08100
H4622       H  0.84561184  0.72034519  0.93937332     0.08100
H4623       H  0.84785836  0.70086711  0.90642591     0.08100
H4624       H  0.86863356  0.69925803  0.93649640     0.04900
C4625       C  0.84194938  0.69288515  0.56787617    -0.20900
C4626       C  0.82796562  0.68634346  0.59266892    -0.07500
C4627       C  0.83598797  0.66864510  0.61229175     0.13400
C4628       C  0.85635576  0.65640856  0.60448370    -0.21000
C4629       C  0.86824076  0.66081322  0.57715610    -0.07500
C4630       C  0.86176210  0.68007487  0.55954078     0.13400
C4631       C  0.87249524  0.68245361  0.03464048    -0.24300
H4632       H  0.83671141  0.70738063  0.55384857     0.14700
H4633       H  0.86150101  0.64145557  0.61780838     0.14700
C4634       C  0.82256451  0.66128956  0.64008088    -0.24300
H4635       H  0.86473737  0.69752660  0.02259627     0.04900
H4636       H  0.87324105  0.66766003  0.01829593     0.08100
H4637       H  0.89036572  0.68712515  0.04152187     0.08100
H4638       H  0.80471225  0.65630702  0.63347920     0.08100
H4639       H  0.82185263  0.67566472  0.65711533     0.08100
H4640       H  0.83083211  0.64612170  0.65133352     0.04900
C4641       C  0.54939557  0.47756604  0.90014822    -0.20900
C4642       C  0.56266340  0.47455211  0.92709259    -0.07500
C4643       C  0.55191864  0.46132861  0.95025062     0.13400
C4644       C  0.52829507  0.45453775  0.94799941    -0.21000
C4645       C  0.51391412  0.45974807  0.92272095    -0.07500
C4646       C  0.52536187  0.47085560  0.89794341     0.13400
C4647       C  0.51225023  0.47627004  0.86927159    -0.24300
H4648       H  0.55712421  0.48710851  0.88163657     0.14700
H4649       H  0.52098255  0.44497384  0.96676639     0.14700
C4650       C  0.56583883  0.45322752  0.97723553    -0.24300
H4651       H  0.52339742  0.48494908  0.85224508     0.04900
H4652       H  0.49740434  0.48812752  0.87464831     0.08100
H4653       H  0.50573996  0.45997071  0.85884918     0.08100
H4654       H  0.57100308  0.46802877  0.99193092     0.08100
H4655       H  0.58159992  0.44367872  0.96911606     0.08100
H4656       H  0.55575410  0.44125241  0.99154508     0.04900
C4657       C  0.61960285  0.47194328  0.58101394    -0.20900
C4658       C  0.63256684  0.46551872  0.55508058    -0.07500
C4659       C  0.63737417  0.44196439  0.54844256     0.13400
C4660       C  0.62651017  0.42513845  0.56587672    -0.21000
C4661       C  0.61125391  0.43170375  0.58944974    -0.07500
C4662       C  0.60883431  0.45510666  0.59852480     0.13400
C4663       C  0.59328899  0.46237038  0.62479951    -0.24300
H4664       H  0.58611386  0.50319788  0.07984399     0.14700
H4665       H  0.62824884  0.40695695  0.55943977     0.14700
C4666       C  0.65205315  0.43463821  0.52138772    -0.24300
H4667       H  0.59308166  0.48149556  0.62834873     0.04900
H4668       H  0.59957441  0.45418009  0.64607849     0.08100
H4669       H  0.57522136  0.45682419  0.62043979     0.08100
H4670       H  0.66973247  0.44182500  0.52382171     0.08100
H4671       H  0.64411638  0.44114611  0.50003368     0.08100
H4672       H  0.65375348  0.41544388  0.51945250     0.04900
C4673       C  0.67516623  0.64337810  0.88565934    -0.20900
C4674       C  0.68554142  0.62177941  0.87891601    -0.07500
C4675       C  0.70820312  0.62080743  0.86624010     0.13400
C4676       C  0.72087458  0.64122814  0.86417246    -0.21000
C4677       C  0.71130784  0.66239088  0.87425722    -0.07500
C4678       C  0.68786179  0.66376240  0.88366195     0.13400
C4679       C  0.67614615  0.68660231  0.89170051    -0.24300
H4680       H  0.65776535  0.64418368  0.89515743     0.14700
H4681       H  0.73848720  0.64055115  0.85533776     0.14700
C4682       C  0.71969042  0.59848947  0.85550774    -0.24300
H4683       H  0.65769508  0.68434035  0.89831541     0.04900
H4684       H  0.67652334  0.69817808  0.87167228     0.08100
H4685       H  0.68503279  0.69498118  0.91120132     0.08100
H4686       H  0.70772738  0.58357761  0.85581288     0.08100
H4687       H  0.73489197  0.59453671  0.87013966     0.08100
H4688       H  0.72573774  0.60040782  0.83160364     0.04900
C4689       C  0.76826617  0.51685001  0.00650322    -0.20900
C4690       C  0.75335586  0.53640394  0.00639190    -0.07500
C4691       C  0.76241091  0.55780817  0.01695270     0.13400
C4692       C  0.78595249  0.55951270  0.02521849    -0.21000
C4693       C  0.80155215  0.54051209  0.02304772    -0.07500
C4694       C  0.79210026  0.51856630  0.01467141     0.13400
C4695       C  0.80676833  0.49674091  0.01458594    -0.24300
H4696       H  0.76146577  0.50028428  0.99909414     0.14700
H4697       H  0.79224112  0.57924676  0.50856627     0.14700
C4698       C  0.74732490  0.57927147  0.01932024    -0.24300
H4699       H  0.79622988  0.48108641  0.01003142     0.04900
H4700       H  0.81510450  0.49461028  0.03718779     0.08100
H4701       H  0.82019451  0.49748607  0.99648465     0.08100
H4702       H  0.73166959  0.57567926  0.03323829     0.08100
H4703       H  0.74222614  0.58476366  0.99617121     0.08100
H4704       H  0.75801680  0.59806446  0.50368859     0.04900
C4705       C  0.71915910  0.63977098  0.50344907    -0.20900
C4706       C  0.71219713  0.62784883  0.00648891    -0.07500
C4707       C  0.71764722  0.64727916  0.98860775     0.13400
C4708       C  0.72419058  0.66818234  0.00323056    -0.21000
C4709       C  0.71453159  0.67829628  0.52692877    -0.07500
C4710       C  0.72902308  0.65933259  0.51779984     0.13400
C4711       C  0.75450372  0.65861755  0.52531023    -0.24300
H4712       H  0.73013535  0.62538737  0.49676144     0.14700
H4713       H  0.72774955  0.68333735  0.98972778     0.14700
C4714       C  0.71503721  0.64647457  0.95450597    -0.24300
H4715       H  0.76246170  0.64153862  0.51937769     0.04900
H4716       H  0.75693813  0.66133255  0.55019695     0.08100
H4717       H  0.76379191  0.67217519  0.51247898     0.08100
H4718       H  0.69670809  0.64295041  0.94853362     0.08100
H4719       H  0.72638883  0.63254185  0.94469143     0.08100
H4720       H  0.71996840  0.66313414  0.94398248     0.04900
C4721       C  0.94968973  0.98435512  0.62689500    -0.20900
C4722       C  0.93138719  0.00075431  0.63158095    -0.07500
C4723       C  0.93713838  0.02450942  0.62815594     0.13400
C4724       C  0.96044801  0.03114352  0.62326160    -0.21000
C4725       C  0.97918966  0.01506282  0.62109822    -0.07500
C4726       C  0.97322143  0.99121358  0.62138222     0.13400
C4727       C  0.99185254  0.97303109  0.61720426    -0.24300
H4728       H  0.94586513  0.96610229  0.62919526     0.14700
H4729       H  0.96418282  0.04950033  0.62260557     0.14700
C4730       C  0.91906108  0.04366907  0.63020068    -0.24300
H4731       H  0.98491831  0.95522531  0.61932131     0.04900
H4732       H  0.00541953  0.97557440  0.63463872     0.08100
H4733       H  0.99979524  0.97469292  0.59423624     0.08100
H4734       H  0.92265787  0.05504371  0.65019766     0.08100
H4735       H  0.90114900  0.03709531  0.63223281     0.08100
H4736       H  0.91970843  0.05425088  0.60921040     0.04900
C4737       C  0.83531200  0.08143409  0.72698977    -0.20900
C4738       C  0.84477871  0.07528954  0.69861487    -0.07500
C4739       C  0.86649331  0.08420918  0.69137824     0.13400
C4740       C  0.88212783  0.08723253  0.71521990    -0.21000
C4741       C  0.87471531  0.08488145  0.74577395    -0.07500
C4742       C  0.85038913  0.08418576  0.75177653     0.13400
C4743       C  0.84010953  0.08482144  0.78342462    -0.24300
H4744       H  0.81713729  0.07797995  0.73128332     0.14700
H4745       H  0.90011697  0.09054454  0.70977922     0.14700
C4746       C  0.87408259  0.08588695  0.65868880    -0.24300
H4747       H  0.82089942  0.08344893  0.78304874     0.04900
H4748       H  0.84419677  0.10152461  0.79488055     0.08100
H4749       H  0.84697736  0.06999479  0.79674023     0.08100
H4750       H  0.87255713  0.06876266  0.64707471     0.08100
H4751       H  0.89234394  0.09166061  0.65681849     0.08100
H4752       H  0.86280530  0.09867903  0.64686632     0.04900
C4753       C  0.79513248  0.87485840  0.83577170    -0.20900
C4754       C  0.77264562  0.86601363  0.83344246    -0.07500
C4755       C  0.75663768  0.87782152  0.81423376     0.13400
C4756       C  0.76377773  0.89692488  0.79669161    -0.21000
C4757       C  0.78659796  0.90509898  0.79776161    -0.07500
C4758       C  0.80234384  0.89402784  0.81822060     0.13400
C4759       C  0.82739534  0.90105807  0.82000299    -0.24300
H4760       H  0.80764798  0.86566401  0.84971614     0.14700
H4761       H  0.75153187  0.90521636  0.78144739     0.14700
C4762       C  0.73190739  0.86997998  0.81161328    -0.24300
H4763       H  0.83750081  0.88977272  0.83562491     0.04900
H4764       H  0.82861272  0.91911542  0.82880307     0.08100
H4765       H  0.83553236  0.89967473  0.79703863     0.08100
H4766       H  0.72365522  0.86981011  0.83452929     0.08100
H4767       H  0.73147238  0.85240412  0.80146205     0.08100
H4768       H  0.72142790  0.88153065  0.79674931     0.04900
C4769       C  0.79613666  0.86068823  0.73268840    -0.20900
C4770       C  0.81911456  0.86410625  0.72306292    -0.07500
C4771       C  0.83322840  0.84471712  0.71554541     0.13400
C4772       C  0.82255536  0.82320754  0.71161740    -0.21000
C4773       C  0.79819810  0.82165757  0.71310694    -0.07500
C4774       C  0.78565799  0.83925652  0.72881090     0.13400
C4775       C  0.76103801  0.83671249  0.73969804    -0.24300
H4776       H  0.78570739  0.87526009  0.74096170     0.14700
H4777       H  0.83266808  0.80874374  0.70235131     0.14700
C4778       C  0.85865257  0.84695567  0.70846403    -0.24300
H4779       H  0.75980955  0.84269206  0.76373233     0.04900
H4780       H  0.75524605  0.81845398  0.73928935     0.08100
H4781       H  0.74927139  0.84761588  0.72587373     0.08100
H4782       H  0.86771287  0.85431531  0.72858585     0.08100
H4783       H  0.86101044  0.85844483  0.68857240     0.08100
H4784       H  0.86684749  0.82985075  0.70289569     0.04900
C4785       C  0.43758010  0.96108857  0.74231349    -0.20900
C4786       C  0.42964823  0.98378825  0.74949103    -0.07500
C4787       C  0.44708560  0.00038562  0.75665114     0.13400
C4788       C  0.47120141  0.99401829  0.75558217    -0.21000
C4789       C  0.47902550  0.97159522  0.74658499    -0.07500
C4790       C  0.46154052  0.95484780  0.74079992     0.13400
C4791       C  0.46798777  0.93001845  0.73292214    -0.24300
H4792       H  0.42478581  0.94812154  0.73667989     0.14700
H4793       H  0.48403609  0.00717196  0.76014881     0.14700
C4794       C  0.44121894  0.02541824  0.76378956    -0.24300
H4795       H  0.47952753  0.92276165  0.75076511     0.04900
H4796       H  0.47692837  0.92906188  0.71050418     0.08100
H4797       H  0.45246702  0.91884904  0.73137504     0.08100
H4798       H  0.44698411  0.02973431  0.78727473     0.08100
H4799       H  0.42248283  0.02956254  0.76210401     0.08100
H4800       H  0.45048351  0.03673669  0.74760822     0.04900
C4801       C  0.59025012  0.96332762  0.58306608    -0.20900
C4802       C  0.56752216  0.95858748  0.59301677    -0.07500
C4803       C  0.54915476  0.96157464  0.57224317     0.13400
C4804       C  0.55334723  0.97445015  0.54578983    -0.21000
C4805       C  0.57425286  0.98667591  0.54321816    -0.07500
C4806       C  0.59383068  0.97720323  0.55758821     0.13400
C4807       C  0.61783028  0.98575350  0.55088208    -0.24300
H4808       H  0.60485583  0.95953947  0.59774911     0.14700
H4809       H  0.53866885  0.97981934  0.53217349     0.14700
C4810       C  0.52487479  0.95397858  0.57881745    -0.24300
H4811       H  0.62973453  0.97072790  0.54670442     0.04900
H4812       H  0.62428435  0.99603479  0.57059236     0.08100
H4813       H  0.61802087  0.99673830  0.53026035     0.08100
H4814       H  0.51349575  0.96948581  0.58215551     0.08100
H4815       H  0.52379872  0.94306675  0.59927724     0.08100
H4816       H  0.51855018  0.94341470  0.55933014     0.04900
C4817       C  0.66180691  0.85121419  0.75830508    -0.20900
C4818       C  0.65046068  0.86427457  0.78137449    -0.07500
C4819       C  0.65738261  0.86170004  0.81187324     0.13400
C4820       C  0.67495506  0.84559575  0.81876917    -0.21000
C4821       C  0.68611335  0.83213499  0.79588603    -0.07500
C4822       C  0.67983860  0.83535772  0.76522267     0.13400
C4823       C  0.69174767  0.82184755  0.74007840    -0.24300
H4824       H  0.65682417  0.85378361  0.73475383     0.14700
H4825       H  0.67980415  0.84315801  0.84240446     0.14700
C4826       C  0.64595782  0.87565550  0.83717849    -0.24300
H4827       H  0.68462773  0.82641931  0.71739077     0.04900
H4828       H  0.68942428  0.80297387  0.74367014     0.08100
H4829       H  0.71053767  0.82576664  0.74001421     0.08100
H4830       H  0.62707899  0.87205319  0.83772089     0.08100
H4831       H  0.64852992  0.89446699  0.83336515     0.08100
H4832       H  0.65331329  0.87129490  0.85981196     0.04900
C4833       C  0.69444729  0.99472629  0.71420235    -0.20900
C4834       C  0.68042402  0.98330924  0.69283653    -0.07500
C4835       C  0.69121550  0.97230232  0.66725924     0.13400
C4836       C  0.71564909  0.97112095  0.66528634    -0.21000
C4837       C  0.72957069  0.98140148  0.68768680    -0.07500
C4838       C  0.71880233  0.99427654  0.71164753     0.13400
C4839       C  0.73297302  0.00636146  0.73572150    -0.24300
H4840       H  0.68632769  0.00287923  0.73401077     0.14700
H4841       H  0.72391936  0.96161323  0.64663603     0.14700
C4842       C  0.67711384  0.96071739  0.64276870    -0.24300
H4843       H  0.72181061  0.01517084  0.75315101     0.04900
H4844       H  0.74389490  0.01976672  0.72505001     0.08100
H4845       H  0.74422321  0.99354420  0.74752079     0.08100
H4846       H  0.66466620  0.97343091  0.63292311     0.08100
H4847       H  0.66757006  0.94601655  0.65239075     0.08100
H4848       H  0.68823290  0.95369309  0.62398440     0.04900
C4849       C  0.68265973  0.89278567  0.63884177    -0.20900
C4850       C  0.68283136  0.89613778  0.67088604    -0.07500
C4851       C  0.70010549  0.88462341  0.68775057     0.13400
C4852       C  0.71343155  0.86700906  0.67328487    -0.21000
C4853       C  0.70961371  0.86022803  0.64256636    -0.07500
C4854       C  0.69518540  0.87451333  0.62459177     0.13400
C4855       C  0.69123504  0.86957818  0.59119798    -0.24300
H4856       H  0.67032686  0.90263532  0.62537311     0.14700
H4857       H  0.72568385  0.85724597  0.68679489     0.14700
C4858       C  0.70357779  0.88973412  0.72115556    -0.24300
H4859       H  0.67917993  0.88247314  0.58090535     0.04900
H4860       H  0.68347575  0.85216985  0.58819339     0.08100
H4861       H  0.70795589  0.87027463  0.57859558     0.08100
H4862       H  0.68747930  0.88628745  0.73409072     0.08100
H4863       H  0.70822825  0.90824448  0.72431165     0.08100
H4864       H  0.71770324  0.87886162  0.73093604     0.04900
C4865       C  0.95707409  0.48630636  0.76582339    -0.20900
C4866       C  0.97114064  0.46608998  0.76712488    -0.07500
C4867       C  0.99541148  0.46882664  0.76385825     0.13400
C4868       C  0.00497777  0.49136594  0.76162773    -0.21000
C4869       C  0.99097451  0.51169441  0.76197215    -0.07500
C4870       C  0.96657922  0.50883720  0.76302758     0.13400
C4871       C  0.95053480  0.52967644  0.76350806    -0.24300
H4872       H  0.93852547  0.48460304  0.76913967     0.14700
H4873       H  0.02366752  0.49317857  0.76090440     0.14700
C4874       C  0.01132460  0.44790187  0.76403120    -0.24300
H4875       H  0.93203716  0.52457318  0.76474878     0.04900
H4876       H  0.95299661  0.53982009  0.74239365     0.08100
H4877       H  0.95431249  0.54082709  0.78365662     0.08100
H4878       H  0.00695669  0.43620307  0.74465755     0.08100
H4879       H  0.00919844  0.43833082  0.78562009     0.08100
H4880       H  0.02982418  0.45280121  0.76178015     0.04900
C4881       C  0.96920023  0.61789087  0.93625209    -0.20900
C4882       C  0.98391521  0.60869115  0.95865165    -0.07500
C4883       C  0.00340772  0.59533988  0.94966068     0.13400
C4884       C  0.00558745  0.58844025  0.91914821    -0.21000
C4885       C  0.98842357  0.59418429  0.89746724    -0.07500
C4886       C  0.97009835  0.60950563  0.90618741     0.13400
C4887       C  0.95053038  0.61590402  0.88495617    -0.24300
H4888       H  0.95505791  0.62946401  0.94296944     0.14700
H4889       H  0.02054599  0.57786074  0.91265371     0.14700
C4890       C  0.02173663  0.58768518  0.97194385    -0.24300
H4891       H  0.93703138  0.62671760  0.89658979     0.04900
H4892       H  0.94216009  0.59990489  0.87628454     0.08100
H4893       H  0.95691594  0.62617817  0.86559225     0.08100
H4894       H  0.02215882  0.56844191  0.97327665     0.08100
H4895       H  0.01866734  0.59502282  0.99514165     0.08100
H4896       H  0.03895593  0.59373810  0.96411182     0.04900
C4897       C  0.12389530  0.55914464  0.85369067    -0.20900
C4898       C  0.11175679  0.54237938  0.83678387    -0.07500
C4899       C  0.11341109  0.51883941  0.84454520     0.13400
C4900       C  0.12608938  0.51281091  0.87038467    -0.21000
C4901       C  0.13567881  0.52989379  0.88937404    -0.07500
C4902       C  0.13537598  0.55320186  0.88059840     0.13400
C4903       C  0.14598348  0.57172775  0.90035299    -0.24300
H4904       H  0.12241169  0.57725727  0.84750934     0.14700
H4905       H  0.12671571  0.49485929  0.87732593     0.14700
C4906       C  0.10123669  0.50003401  0.82690564    -0.24300
H4907       H  0.14425552  0.58915886  0.88995150     0.04900
H4908       H  0.16472725  0.56779802  0.90356437     0.08100
H4909       H  0.13721766  0.57229960  0.92295447     0.08100
H4910       H  0.09178166  0.50682374  0.80683348     0.08100
H4911       H  0.08858632  0.49130727  0.84194606     0.08100
H4912       H  0.11420846  0.48699267  0.81856794     0.04900
C4913       C  0.10599499  0.68595613  0.86983320    -0.20900
C4914       C  0.09671267  0.69310391  0.84167639    -0.07500
C4915       C  0.10521608  0.71349127  0.82831266     0.13400
C4916       C  0.12390449  0.72495368  0.84224159    -0.21000
C4917       C  0.13456322  0.71638530  0.86886958    -0.07500
C4918       C  0.12481099  0.69710302  0.88340684     0.13400
C4919       C  0.13497509  0.68712930  0.91211608    -0.24300
H4920       H  0.09936040  0.67058866  0.88067318     0.14700
H4921       H  0.13098698  0.74012402  0.83146328     0.14700
C4922       C  0.09474014  0.72330612  0.79969408    -0.24300
H4923       H  0.12560561  0.67146451  0.91966116     0.04900
H4924       H  0.13369486  0.70025052  0.93078522     0.08100
H4925       H  0.15340239  0.68199148  0.90820127     0.08100
H4926       H  0.07585252  0.72648177  0.80317684     0.08100
H4927       H  0.09744258  0.71109063  0.78025868     0.08100
H4928       H  0.10278222  0.74002189  0.79342662     0.04900
C4929       C  0.13059432  0.67381363  0.75079495    -0.20900
C4930       C  0.12345077  0.65713101  0.72919661    -0.07500
C4931       C  0.13566755  0.65406227  0.70173212     0.13400
C4932       C  0.15487960  0.66781176  0.69649380    -0.21000
C4933       C  0.16217536  0.68452139  0.71788618    -0.07500
C4934       C  0.14993077  0.68767903  0.74550875     0.13400
C4935       C  0.15696275  0.70476371  0.76995003    -0.24300
H4936       H  0.12117255  0.67579013  0.77213636     0.14700
H4937       H  0.16420888  0.66554621  0.67517805     0.14700
C4938       C  0.12871295  0.63699505  0.67725116    -0.24300
H4939       H  0.14279662  0.71772212  0.77372179     0.04900
H4940       H  0.17299574  0.71418272  0.76418617     0.08100
H4941       H  0.16002120  0.69543110  0.79160578     0.08100
H4942       H  0.12469628  0.64650981  0.65598612     0.08100
H4943       H  0.11325398  0.62681952  0.68349388     0.08100
H4944       H  0.14331293  0.62464641  0.67264964     0.04900
C4945       C  0.98560557  0.98067735  0.79900952    -0.20900
C4946       C  0.00272551  0.97140208  0.81858155    -0.07500
C4947       C  0.01208424  0.98704035  0.84043079     0.13400
C4948       C  0.00437061  0.01094115  0.84162200    -0.21000
C4949       C  0.98817154  0.02042814  0.82046317    -0.07500
C4950       C  0.97871454  0.00435152  0.79903724     0.13400
C4951       C  0.96123969  0.01163832  0.77537699    -0.24300
H4952       H  0.97780278  0.96920379  0.78232181     0.14700
H4953       H  0.01186632  0.02249121  0.85844217     0.14700
C4954       C  0.03100841  0.97890690  0.86140281    -0.24300
H4955       H  0.95471643  0.99667670  0.76187038     0.04900
H4956       H  0.96960075  0.02341042  0.75898626     0.08100
H4957       H  0.94600328  0.02026080  0.78646058     0.08100
H4958       H  0.04602339  0.97228253  0.84776308     0.08100
H4959       H  0.02450072  0.96477047  0.87600656     0.08100
H4960       H  0.03714161  0.99318568  0.87642728     0.04900
C4961       C  0.02783517  0.98714673  0.70993430    -0.20900
C4962       C  0.03537939  0.00209881  0.73318201    -0.07500
C4963       C  0.04726796  0.99305763  0.75846585     0.13400
C4964       C  0.05421690  0.96972856  0.75772737    -0.21000
C4965       C  0.04974286  0.95567951  0.73207586    -0.07500
C4966       C  0.03625808  0.96443230  0.70791761     0.13400
C4967       C  0.03259724  0.95156264  0.67818758    -0.24300
H4968       H  0.01803523  0.99398921  0.69089345     0.14700
H4969       H  0.06368084  0.96262960  0.77686983     0.14700
C4970       C  0.05242410  0.00789751  0.78609418    -0.24300
H4971       H  0.03990317  0.96193490  0.65933725     0.04900
H4972       H  0.01379135  0.94930971  0.67417227     0.08100
H4973       H  0.04129810  0.93436919  0.67681088     0.08100
H4974       H  0.03601120  0.01547608  0.79518074     0.08100
H4975       H  0.06412201  0.02228767  0.78035275     0.08100
H4976       H  0.06082716  0.99764082  0.80438308     0.04900
C4977       C  0.93173218  0.94555710  0.76572043    -0.20900
C4978       C  0.92850272  0.94413589  0.73414011    -0.07500
C4979       C  0.93599234  0.92397664  0.71781978     0.13400
C4980       C  0.94413355  0.90480686  0.73394490    -0.21000
C4981       C  0.94716039  0.90612620  0.76542934    -0.07500
C4982       C  0.94143156  0.92683911  0.78155533     0.13400
C4983       C  0.94485308  0.92896192  0.81553097    -0.24300
H4984       H  0.92580517  0.96090106  0.77817567     0.14700
H4985       H  0.94992231  0.88934713  0.72161520     0.14700
C4986       C  0.93708971  0.92305312  0.68334181    -0.24300
H4987       H  0.93874508  0.94611152  0.82448236     0.04900
H4988       H  0.96351714  0.92712210  0.82119755     0.08100
H4989       H  0.93495231  0.91525382  0.82725621     0.08100
H4990       H  0.94726915  0.93792633  0.67496135     0.08100
H4991       H  0.91961137  0.92352585  0.67301474     0.08100
H4992       H  0.94577485  0.90686465  0.67492076     0.04900
C4993       C  0.14024774  0.80857140  0.77314171    -0.20900
C4994       C  0.13753055  0.83187740  0.78206502    -0.07500
C4995       C  0.15548774  0.84300278  0.79786511     0.13400
C4996       C  0.17433022  0.82957538  0.80799703    -0.21000
C4997       C  0.17493440  0.80516796  0.80397314    -0.07500
C4998       C  0.15853615  0.79488003  0.78413472     0.13400
C4999       C  0.15878985  0.76940174  0.77595580    -0.24300
H5000       H  0.12667763  0.80049975  0.75979559     0.14700
H5001       H  0.18750286  0.83801354  0.82156914     0.14700
C5002       C  0.15393627  0.86840624  0.80632123    -0.24300
H5003       H  0.14488490  0.76518202  0.75951366     0.04900
H5004       H  0.15557770  0.75888542  0.79648161     0.08100
H5005       H  0.17566895  0.76431641  0.76541974     0.08100
H5006       H  0.13842677  0.87177424  0.82090016     0.08100
H5007       H  0.15265700  0.87892492  0.78532989     0.08100
H5008       H  0.16945296  0.87417599  0.81913933     0.04900
C5009       C  0.01665704  0.75092117  0.82599966    -0.20900
C5010       C  0.00710291  0.76265105  0.80099092    -0.07500
C5011       C  0.99466164  0.74962018  0.77900995     0.13400
C5012       C  0.99401375  0.72515994  0.78110440    -0.21000
C5013       C  0.00466881  0.71333431  0.80528175    -0.07500
C5014       C  0.01519423  0.72658130  0.82868016     0.13400
C5015       C  0.02579084  0.71492427  0.85591730    -0.24300
H5016       H  0.02592370  0.76081504  0.84311351     0.14700
H5017       H  0.98622216  0.71509588  0.76289132     0.14700
C5018       C  0.98320478  0.76126697  0.75234122    -0.24300
H5019       H  0.03322766  0.72771057  0.87217714     0.04900
H5020       H  0.03987778  0.70287044  0.84846160     0.08100
H5021       H  0.01227292  0.70504400  0.86811391     0.08100
H5022       H  0.99628452  0.77082437  0.73894125     0.08100
H5023       H  0.96955690  0.77355079  0.76073445     0.08100
H5024       H  0.97481453  0.74850309  0.73690160     0.04900
C5025       C  0.10040575  0.77026704  0.70864920    -0.20900
C5026       C  0.09136824  0.79090861  0.69657357    -0.07500
C5027       C  0.10151218  0.79938438  0.66909532     0.13400
C5028       C  0.12105705  0.78796164  0.65606640    -0.21000
C5029       C  0.13100550  0.76836133  0.66953055    -0.07500
C5030       C  0.11974978  0.75878986  0.69531524     0.13400
C5031       C  0.12811063  0.73641043  0.70907417    -0.24300
H5032       H  0.09268276  0.76337054  0.72917029     0.14700
H5033       H  0.12957417  0.79529947  0.63637775     0.14700
C5034       C  0.09303637  0.82133881  0.65412649    -0.24300
H5035       H  0.11621734  0.73035290  0.72723551     0.04900
H5036       H  0.14523355  0.73894272  0.71961008     0.08100
H5037       H  0.12936339  0.72263784  0.69120150     0.08100
H5038       H  0.09402164  0.83614407  0.67047929     0.08100
H5039       H  0.07493954  0.81913006  0.64616122     0.08100
H5040       H  0.10365284  0.82574801  0.63385377     0.04900
C5041       C  0.51037898  0.84337527  0.65792899    -0.20900
C5042       C  0.48853832  0.85384689  0.65345834    -0.07500
C5043       C  0.47637453  0.86327035  0.67902237     0.13400
C5044       C  0.48827622  0.86643039  0.70642197    -0.21000
C5045       C  0.51188211  0.86084069  0.70825442    -0.07500
C5046       C  0.52189558  0.84609427  0.68571589     0.13400
C5047       C  0.54592830  0.83575569  0.68883141    -0.24300
H5048       H  0.51919384  0.83447347  0.63918689     0.14700
H5049       H  0.48016312  0.87657122  0.72464176     0.14700
C5050       C  0.45122501  0.87068385  0.67833707    -0.24300
H5051       H  0.54525859  0.81670135  0.68489704     0.04900
H5052       H  0.55318133  0.83860919  0.71189315     0.08100
H5053       H  0.55776310  0.84340569  0.67172770     0.08100
H5054       H  0.44236405  0.86563826  0.65698551     0.08100
H5055       H  0.44981504  0.88978735  0.68168428     0.08100
H5056       H  0.44179643  0.86212507  0.69716941     0.04900
C5057       C  0.33793645  0.94587524  0.60657900    -0.20900
C5058       C  0.33902732  0.93818249  0.63678235    -0.07500
C5059       C  0.35138513  0.91775716  0.64369529     0.13400
C5060       C  0.36542428  0.90754320  0.62127588    -0.21000
C5061       C  0.36731372  0.91738618  0.59227213    -0.07500
C5062       C  0.35236526  0.93594259  0.58404744     0.13400
C5063       C  0.35258897  0.94721221  0.55314978    -0.24300
H5064       H  0.32825379  0.96163878  0.60147607     0.14700
H5065       H  0.37607019  0.89258961  0.62700824     0.14700
C5066       C  0.35088050  0.90769233  0.67526685    -0.24300
H5067       H  0.33524129  0.94552656  0.54248371     0.04900
H5068       H  0.36568446  0.93975612  0.53724887     0.08100
H5069       H  0.35649412  0.96594752  0.55588096     0.08100
H5070       H  0.33272586  0.90352183  0.68148785     0.08100
H5071       H  0.35782246  0.92024453  0.69217497     0.08100
H5072       H  0.36147900  0.89147961  0.67659389     0.04900
C5073       C  0.48889587  0.96698937  0.50902718    -0.20900
C5074       C  0.47625302  0.95667134  0.53296841    -0.07500
C5075       C  0.46801086  0.97204021  0.55666414     0.13400
C5076       C  0.47476688  0.99559489  0.55744834    -0.21000
C5077       C  0.48882869  0.00542038  0.53484238    -0.07500
C5078       C  0.49493296  0.99098528  0.50949904     0.13400
C5079       C  0.50860272  0.00062467  0.48338206    -0.24300
H5080       H  0.49460911  0.95612677  0.49004478     0.14700
H5081       H  0.46324287  0.01461350  0.06370742     0.14700
C5082       C  0.44645173  0.97238477  0.07059243    -0.24300
H5083       H  0.51233239  0.98717364  0.46562147     0.04900
H5084       H  0.52537786  0.00746697  0.49168249     0.08100
H5085       H  0.49849117  0.01488263  0.47266321     0.08100
H5086       H  0.46173894  0.95204040  0.59690395     0.08100
H5087       H  0.43113946  0.96358333  0.06072861     0.08100
H5088       H  0.43986044  0.98741145  0.08435065     0.04900
C5089       C  0.33926620  0.79749394  0.52820024    -0.20900
C5090       C  0.35764227  0.78117251  0.52799947    -0.07500
C5091       C  0.35370173  0.75863928  0.53867465     0.13400
C5092       C  0.33193170  0.75334033  0.55098645    -0.21000
C5093       C  0.31437230  0.77050023  0.55484720    -0.07500
C5094       C  0.31789475  0.79272349  0.54235334     0.13400
C5095       C  0.29967413  0.81169260  0.54461098    -0.24300
H5096       H  0.34241519  0.81485999  0.52003025     0.14700
H5097       H  0.32933484  0.73605976  0.55979830     0.14700
C5098       C  0.37287845  0.74056418  0.53851659    -0.24300
H5099       H  0.30484763  0.82738289  0.53189628     0.04900
H5100       H  0.29705160  0.81696515  0.56880259     0.08100
H5101       H  0.28304758  0.80554402  0.53500451     0.08100
H5102       H  0.38710221  0.74609771  0.55385296     0.08100
H5103       H  0.37988624  0.73827786  0.51504660     0.08100
H5104       H  0.36663902  0.72347683  0.54640185     0.04900
C5105       C  0.33623649  0.84060940  0.93645699    -0.20900
C5106       C  0.35872592  0.83568509  0.92557342    -0.07500
C5107       C  0.36691877  0.81387930  0.40629728     0.13400
C5108       C  0.34339459  0.80399130  0.89510080    -0.21000
C5109       C  0.32176643  0.80695035  0.90932933    -0.07500
C5110       C  0.31768133  0.82637819  0.92872598     0.13400
C5111       C  0.29398634  0.83210180  0.94174274    -0.24300
H5112       H  0.33348908  0.85417685  0.95347449     0.14700
H5113       H  0.34620400  0.78968304  0.87915576     0.14700
C5114       C  0.38949312  0.81028022  0.38931358    -0.24300
H5115       H  0.29376444  0.84895653  0.95431081     0.04900
H5116       H  0.28866310  0.81872297  0.95809787     0.08100
H5117       H  0.28114092  0.83329263  0.92301966     0.08100
H5118       H  0.39728190  0.79321089  0.39534789     0.08100
H5119       H  0.40212033  0.82418722  0.39414621     0.08100
H5120       H  0.38616580  0.81046395  0.36438920     0.04900
C5121       C  0.50664914  0.49925867  0.58574514    -0.20900
C5122       C  0.48944840  0.50894453  0.60483894    -0.07500
C5123       C  0.48140989  0.49499065  0.62922971     0.13400
C5124       C  0.48863608  0.47129388  0.63144420    -0.21000
C5125       C  0.50435514  0.46079100  0.61045696    -0.07500
C5126       C  0.51446866  0.47591755  0.58832122     0.13400
C5127       C  0.53270554  0.46780894  0.56569736    -0.24300
H5128       H  0.51303396  0.50972904  0.56718720     0.14700
H5129       H  0.48132216  0.46081203  0.64935433     0.14700
C5130       C  0.46437547  0.50419018  0.65266402    -0.24300
H5131       H  0.53929763  0.48224603  0.55164921     0.04900
H5132       H  0.52514423  0.45496424  0.54967601     0.08100
H5133       H  0.54782847  0.46025201  0.57783590     0.08100
H5134       H  0.44812396  0.49408704  0.65158306     0.08100
H5135       H  0.45991955  0.52272857  0.64945710     0.08100
H5136       H  0.47200751  0.50241254  0.67574596     0.04900
C5137       C  0.49888526  0.53603493  0.46953956    -0.20900
C5138       C  0.48810842  0.55637109  0.45957522    -0.07500
C5139       C  0.50086128  0.57171974  0.44140119     0.13400
C5140       C  0.53851077  0.59049333  0.92420178    -0.21000
C5141       C  0.54607183  0.56742079  0.92642777    -0.07500
C5142       C  0.52959578  0.54971032  0.92785055     0.13400
C5143       C  0.53582913  0.52486783  0.92295490    -0.24300
H5144       H  0.48874367  0.52336527  0.48170312     0.14700
H5145       H  0.55087389  0.60422795  0.92061248     0.14700
C5146       C  0.48924894  0.59085697  0.42381913    -0.24300
H5147       H  0.53302238  0.51502979  0.94426614     0.04900
H5148       H  0.55406109  0.52281603  0.91521981     0.08100
H5149       H  0.52452739  0.51798661  0.90467114     0.08100
H5150       H  0.49520016  0.60799765  0.43229725     0.08100
H5151       H  0.47004967  0.59017996  0.42576972     0.08100
H5152       H  0.49385590  0.58894977  0.39929537     0.04900
C5153       C  0.39727408  0.45299150  0.56686229    -0.20900
C5154       C  0.41899362  0.45135758  0.55195816    -0.07500
C5155       C  0.43746492  0.46403896  0.56400285     0.13400
C5156       C  0.43217354  0.48295667  0.58323574    -0.21000
C5157       C  0.40901908  0.48952167  0.58871821    -0.07500
C5158       C  0.39170748  0.47295381  0.58416781     0.13400
C5159       C  0.36712532  0.47769731  0.59432874    -0.24300
H5160       H  0.38330822  0.44195683  0.55934308     0.14700
H5161       H  0.44553568  0.49504125  0.58874759     0.14700
C5162       C  0.47226262  0.47380669  0.00701894    -0.24300
H5163       H  0.35569680  0.46284409  0.58893639     0.04900
H5164       H  0.36008504  0.49333294  0.58282225     0.08100
H5165       H  0.36674296  0.48066225  0.61938832     0.08100
H5166       H  0.46913504  0.47012373  0.98268829     0.08100
H5167       H  0.48390285  0.46021455  0.01633128     0.08100
H5168       H  0.47363221  0.47296054  0.56272795     0.04900
C5169       C  0.31274181  0.65070613  0.62359836    -0.20900
C5170       C  0.31970764  0.67227109  0.63501708     0.02900
C5171       C  0.34124267  0.67434457  0.64992361     0.13400
C5172       C  0.35601165  0.65496540  0.65109251    -0.21000
C5173       C  0.34980749  0.63367315  0.63773716    -0.07500
C5174       C  0.32726906  0.63115482  0.62534191     0.13400
C5175       C  0.31819306  0.60826926  0.61369969    -0.24300
H5176       H  0.29560675  0.64909332  0.61369927     0.14700
H5177       H  0.37293322  0.65668992  0.66152673     0.14700
C5178       C  0.34917635  0.69707480  0.66348912    -0.24300
H5179       H  0.29986407  0.60976329  0.60612399     0.04900
H5180       H  0.31887229  0.59524552  0.63215361     0.08100
H5181       H  0.32845004  0.60195427  0.59385017     0.08100
H5182       H  0.33819326  0.70200794  0.68341881     0.08100
H5183       H  0.34815572  0.71089798  0.64607935     0.08100
H5184       H  0.36739581  0.69594536  0.67157459     0.04900
C5185       C  0.44534266  0.71096635  0.56083118    -0.20900
C5186       C  0.44536342  0.69614413  0.53509537    -0.07500
C5187       C  0.44883360  0.70620731  0.50601191     0.13400
C5188       C  0.45156814  0.73051072  0.50361823    -0.21000
C5189       C  0.45138218  0.74529246  0.52943459    -0.07500
C5190       C  0.44825322  0.73514524  0.55846545     0.13400
C5191       C  0.44656528  0.74975580  0.58710027    -0.24300
H5192       H  0.44262140  0.70358755  0.58316964     0.14700
H5193       H  0.45355687  0.73810385  0.48127243     0.14700
C5194       C  0.44873885  0.69170685  0.47719749    -0.24300
H5195       H  0.44274183  0.73916219  0.60747548     0.04900
H5196       H  0.43237349  0.76282080  0.58478553     0.08100
H5197       H  0.46326545  0.75853163  0.59123352     0.08100
H5198       H  0.43215739  0.68220148  0.47536794     0.08100
H5199       H  0.46353645  0.67917255  0.47731211     0.08100
H5200       H  0.45053202  0.70252421  0.45653430     0.04900
C5201       C  0.34745036  0.68039619  0.50228074    -0.20900
C5202       C  0.33995372  0.66013825  0.51654500    -0.07500
C5203       C  0.31648282  0.65357191  0.51332081     0.13400
C5204       C  0.30162866  0.66635787  0.49421981    -0.21000
C5205       C  0.30934553  0.68605430  0.47882254    -0.07500
C5206       C  0.33241002  0.69360450  0.48379045     0.13400
C5207       C  0.33851914  0.72888480  0.97633855    -0.24300
H5208       H  0.36549960  0.68524124  0.50432737     0.14700
H5209       H  0.28378685  0.66097306  0.49152638     0.14700
C5210       C  0.30660812  0.63309615  0.52979146    -0.24300
H5211       H  0.35655583  0.73358760  0.98232742     0.04900
H5212       H  0.33252637  0.73066296  0.47731422     0.08100
H5213       H  0.33685094  0.73011232  0.95119056     0.08100
H5214       H  0.31931041  0.62478514  0.54528778     0.08100
H5215       H  0.30072876  0.61991505  0.51296005     0.08100
H5216       H  0.29154471  0.63896255  0.54391344     0.04900
loop_ 
_geom_bond_atom_site_label_1 
_geom_bond_atom_site_label_2 
_geom_bond_distance 
_geom_bond_site_symmetry_2 
_ccdc_geom_bond_type 
Zr1           O2   2.439       .  S
Zr1           O3   2.469       .  S
Zr1           O4   2.448       .  S
Zr1           O7   2.386       .  S
Zr1           O9   2.364       .  S
Zr1          O10   2.381       .  S
Zr1          O11   2.408       .  S
Zr1          O12   2.423       .  S
O2           H58   0.989       .  S
O2           H66   0.991       .  S
O3           C23   1.291       .  A
O4           C25   1.287       .  A
O5          Zr15   2.437       .  S
O5           C24   1.285       .  A
O6          Zr14   2.439       .  S
O6           C25   1.284       .  A
O7           C24   1.280       .  A
O8          Zr16   2.410       .  S
O8           C23   1.280   1_556  A
O9          Zr14   2.379       .  S
O9          Zr16   2.384   1_554  S
O10         Zr15   2.376       .  S
O10         Zr16   2.365   1_554  S
O10          H45   0.964       .  S
O11         Zr14   2.377       .  S
O11         Zr31   2.434       .  S
O11          H48   0.967       .  S
O12         Zr15   2.399       .  S
O12         Zr31   2.426       .  S
Zr13         O38   2.454   1_554  S
Zr13         O32   2.466       .  S
Zr13         O40   2.431       .  S
Zr13         O28   2.423   1_554  S
Zr13         O19   2.413       .  S
Zr13         O20   2.404   1_554  S
Zr13         O21   2.385       .  S
Zr13         O22   2.394       .  S
Zr14         O33   2.435       .  S
Zr14         O26   2.427   1_554  S
Zr14         O27   2.393   1_554  S
Zr14         O20   2.388   1_554  S
Zr14         O21   2.403       .  S
Zr15         O17   2.434       .  S
Zr15         O39   2.436       .  S
Zr15         O41   2.409       .  S
Zr15         O19   2.414       .  S
Zr15         O22   2.408       .  S
Zr16         O42   2.436       .  S
Zr16         O43   2.438       .  S
Zr16         O18   2.436       .  S
Zr16         O19   2.387   1_556  S
Zr16         O20   2.372       .  S
O17          H54   0.991       .  S
O18          H63   0.989       .  S
O18        H2657   0.991       .  S
O20          H46   0.967       .  S
O21         Zr31   2.379       .  S
O22         Zr31   2.354       .  S
O22          H47   0.962       .  S
C23        C2594   1.480       .  S
C24        C2565   1.465       .  S
C25        C2578   1.498       .  S
O26          H62   0.990       .  S
O27          C29   1.278       .  A
O28          C29   1.284       .  A
C29        C2530   1.467       .  S
O30         Zr31   2.437       .  S
O30          H59   0.991       .  S
Zr31         O34   2.436       .  S
Zr31         O35   2.437       .  S
Zr31         O36   2.512       .  S
O32          C37   1.286       .  A
O33          H50   0.991       .  S
O33          H65   0.990       .  S
O34          H51   0.990       .  S
O35          H55   0.992       .  S
O35          H64   0.988       .  S
O36          C37   1.297       .  A
C37        C2514   1.525       .  S
O38          H57   0.992       .  S
O38          H61   0.989       .  S
O39          H53   0.990       .  S
O39          H60   0.989       .  S
O40          C44   1.278       .  A
O41          C44   1.271       .  A
O42          H52   0.990       .  S
O43        H2664   0.991       .  S
C44        C2549   1.471       .  S
H49        O2626   0.989       .  S
H56        O2651   0.991       .  S
Zr67       O2676   2.436       .  S
Zr67         O69   2.450       .  S
Zr67         O70   2.438       .  S
Zr67         O73   2.379       .  S
Zr67         O75   2.369   1_556  S
Zr67         O76   2.397   1_556  S
Zr67         O77   2.415       .  S
Zr67         O78   2.425       .  S
O68       Zr2675   2.436       .  S
O68         H124   0.991       .  S
O68         H132   0.989       .  S
O69          C89   1.281   1_556  A
O70          C91   1.284   1_556  A
O71         Zr81   2.445       .  S
O71          C90   1.285       .  A
O72         Zr80   2.466       .  S
O72          C91   1.289       .  A
O73          C90   1.276       .  A
O74         Zr82   2.402       .  S
O74          C89   1.269       .  A
O75         Zr80   2.370       .  S
O75         Zr82   2.359       .  S
O76         Zr81   2.377   1_554  S
O76         Zr82   2.378       .  S
O76         H111   0.965       .  S
O77         Zr80   2.393   1_556  S
O77         Zr97   2.443       .  S
O77         H114   0.964       .  S
O78         Zr81   2.394       .  S
O78         Zr97   2.429       .  S
Zr79        O104   2.441       .  S
Zr79         O98   2.455       .  S
Zr79        O106   2.434       .  S
Zr79         O94   2.456       .  S
Zr79         O85   2.377       .  S
Zr79         O86   2.411       .  S
Zr79         O87   2.378       .  S
Zr79         O88   2.390       .  S
Zr80         O99   2.437       .  S
Zr80         O92   2.439       .  S
Zr80         O93   2.411       .  S
Zr80         O86   2.419       .  S
Zr80         O87   2.413       .  S
Zr81        O105   2.441       .  S
Zr81       O2691   2.436       .  S
Zr81        O107   2.442   1_556  S
Zr81         O85   2.383   1_556  S
Zr81         O88   2.383   1_556  S
Zr82        O108   2.437       .  S
Zr82        O109   2.436       .  S
Zr82         O84   2.439       .  S
Zr82         O85   2.358       .  S
Zr82         O86   2.371       .  S
O83       Zr2689   2.435       .  S
O83         H120   0.990       .  S
O84         H115   0.990       .  S
O84         H129   0.990       .  S
O86         H112   0.962       .  S
O87         Zr97   2.388   1_554  S
O88         Zr97   2.382   1_554  S
O88         H113   0.964       .  S
C89        C2482   1.465       .  S
C90        C5106   1.474       .  S
C91        C2581   1.493       .  S
O92         H128   0.990       .  S
O93          C95   1.279       .  A
O94          C95   1.288       .  A
C95        C2434   1.470       .  S
O96       Zr2705   2.438       .  S
O96         H125   0.990       .  S
Zr97       O2704   2.438       .  S
Zr97       O2708   2.438       .  S
Zr97       O2709   2.439       .  S
Zr97        O102   2.481       .  S
O98         C103   1.286       .  A
O99         H116   0.990       .  S
O99         H131   0.990       .  S
O100      Zr2705   2.435       .  S
O100        H117   0.990       .  S
O101      Zr2705   2.436       .  S
O101        H121   0.990       .  S
O101        H130   0.990       .  S
O102        C103   1.291   1_556  A
C103       C2466   1.523       .  S
O104        H123   0.990       .  S
O104        H127   0.990       .  S
O105        H119   0.990       .  S
O105        H126   0.991       .  S
O106        C110   1.286       .  A
O107        C110   1.284       .  A
O108        H118   0.991       .  S
O109        H122   0.990       .  S
C110       C2453   1.462       .  S
Zr133       O134   2.440       .  S
Zr133       O135   2.505       .  S
Zr133       O136   2.443       .  S
Zr133       O139   2.374       .  S
Zr133       O141   2.368       .  S
Zr133       O142   2.373       .  S
Zr133       O143   2.434       .  S
Zr133       O144   2.444       .  S
O134        H190   0.992       .  S
O134        H198   0.989       .  S
O135        C155   1.299       .  A
O136        C157   1.284       .  A
O137       Zr147   2.460       .  S
O137        C156   1.288       .  A
O138       Zr146   2.455       .  S
O138        C157   1.286   1_655  A
O139        C156   1.274       .  A
O140       Zr148   2.418       .  S
O140        C155   1.281       .  A
O141       Zr146   2.389   1_455  S
O141       Zr148   2.378       .  S
O142       Zr147   2.358       .  S
O142       Zr148   2.392       .  S
O142        H177   0.966       .  S
O143       Zr146   2.404   1_455  S
O143       Zr163   2.483       .  S
O143        H180   0.966       .  S
O144       Zr147   2.385       .  S
O144       Zr163   2.450       .  S
Zr145       O170   2.426   1_455  S
Zr145       O164   2.391       .  S
Zr145       O172   2.406       .  S
Zr145       O160   2.421   1_455  S
Zr145       O151   2.399       .  S
Zr145       O152   2.421       .  S
Zr145       O153   2.369       .  S
Zr145       O154   2.400       .  S
Zr146       O165   2.436       .  S
Zr146       O158   2.434       .  S
Zr146       O159   2.413       .  S
Zr146       O152   2.448   1_655  S
Zr146       O153   2.427   1_655  S
Zr147       O149   2.435       .  S
Zr147       O171   2.440       .  S
Zr147       O173   2.393       .  S
Zr147       O151   2.440       .  S
Zr147       O154   2.431       .  S
Zr148       O174   2.434       .  S
Zr148       O175   2.438       .  S
Zr148       O150   2.434       .  S
Zr148       O151   2.378       .  S
Zr148       O152   2.402       .  S
O149        H186   0.990       .  S
O150        H181   0.991   1_455  S
O150        H195   0.989       .  S
O152        H178   0.927   1_455  S
O153       Zr163   2.327       .  S
O154       Zr163   2.344       .  S
O154        H179   0.965       .  S
C155       C2418   1.503       .  S
C156       C2386   1.470       .  S
C157       C2402   1.496       .  S
O158        H194   0.990       .  S
O159        C161   1.262       .  A
O160        C161   1.270       .  A
C161       C2373   1.449       .  S
O162       Zr163   2.434       .  S
O162        H191   0.990       .  S
Zr163       O166   2.438   1_455  S
Zr163       O167   2.435       .  S
Zr163       O168   2.601       .  S
O164        C169   1.281       .  A
O165        H182   0.990       .  S
O165        H197   0.990       .  S
O166        H183   0.990       .  S
O167        H187   0.991       .  S
O167        H196   0.989       .  S
O168        C169   1.317       .  A
C169       C2338   1.547   1_455  S
O170        H189   0.988       .  S
O170        H193   0.990       .  S
O171        H185   0.990       .  S
O171        H192   0.989       .  S
O172        C176   1.271       .  A
O173        C176   1.262       .  A
O174        H184   0.990       .  S
O175        H188   0.990       .  S
C176       C2357   1.451       .  S
Zr199       O200   2.438       .  S
Zr199       O201   2.486       .  S
Zr199       O202   2.409       .  S
Zr199       O205   2.404       .  S
Zr199       O207   2.364       .  S
Zr199       O208   2.374       .  S
Zr199       O209   2.419       .  S
Zr199       O210   2.427       .  S
O200        H256   0.990       .  S
O200        H264   0.991       .  S
O201        C221   1.295       .  A
O202        C223   1.279       .  A
O203       Zr213   2.459       .  S
O203        C222   1.286       .  A
O204       Zr212   2.486       .  S
O204        C223   1.293       .  A
O205        C222   1.279       .  A
O206       Zr214   2.370       .  S
O206        C221   1.273       .  A
O207       Zr212   2.370       .  S
O207       Zr214   2.378       .  S
O208       Zr213   2.392       .  S
O208       Zr214   2.361       .  S
O208        H243   0.966       .  S
O209       Zr212   2.388       .  S
O209       Zr229   2.442       .  S
O209        H246   0.968       .  S
O210       Zr213   2.380       .  S
O210       Zr229   2.442       .  S
Zr211       O236   2.441       .  S
Zr211       O230   2.420       .  S
Zr211       O238   2.445       .  S
Zr211       O226   2.423       .  S
Zr211       O217   2.387       .  S
Zr211       O218   2.429       .  S
Zr211       O219   2.389       .  S
Zr211       O220   2.386       .  S
Zr212       O231   2.437   1_455  S
Zr212       O224   2.436   1_455  S
Zr212       O225   2.418   1_455  S
Zr212       O218   2.415       .  S
Zr212       O219   2.421       .  S
Zr213       O215   2.435       .  S
Zr213       O237   2.446       .  S
Zr213       O239   2.410       .  S
Zr213       O217   2.400       .  S
Zr213       O220   2.414       .  S
Zr214       O240   2.437       .  S
Zr214       O241   2.436       .  S
Zr214       O216   2.440       .  S
Zr214       O217   2.365       .  S
Zr214       O218   2.352       .  S
O215        H252   0.990       .  S
O216        H247   0.990       .  S
O216        H261   0.989       .  S
O218        H244   0.963       .  S
O219       Zr229   2.363       .  S
O220       Zr229   2.378       .  S
O220        H245   0.966       .  S
C221       C2306   1.492       .  S
C222       C2322   1.468       .  S
C223       C2405   1.490       .  S
O224        H260   0.989   1_655  S
O225        C227   1.274       .  A
O226        C227   1.281   1_455  A
C227       C2277   1.482       .  S
O228       Zr229   2.435       .  S
O228        H257   0.990       .  S
Zr229       O232   2.435   1_455  S
Zr229       O233   2.440       .  S
Zr229       O234   2.517   1_455  S
O230        C235   1.278   1_455  A
O231        H248   0.990       .  S
O231        H263   0.990       .  S
O232        H249   0.991       .  S
O233        H253   0.990       .  S
O233        H262   0.990       .  S
O234        C235   1.298       .  A
C235       C2261   1.514       .  S
O236        H255   0.990       .  S
O236        H259   0.991       .  S
O237        H251   0.990       .  S
O237        H258   0.991       .  S
O238        C242   1.287       .  A
O239        C242   1.278       .  A
O240        H250   0.990       .  S
O241        H254   0.990       .  S
C242       C2290   1.458       .  S
Zr265      O2874   2.435       .  S
Zr265       O271   2.441       .  S
Zr265      O2875   2.410       .  S
Zr265      O2876   2.434       .  S
Zr265       O273   2.378       .  S
Zr265       O274   2.390       .  S
Zr265       O275   2.403       .  S
Zr265       O276   2.381       .  S
O266      Zr2873   2.435       .  S
O266        H322   0.991       .  S
O266        H330   0.989       .  S
O267      Zr2873   2.407       .  S
O267       C2895   1.276       .  A
O268      Zr2873   2.428       .  S
O268        C289   1.283   1_556  A
O269       Zr279   2.427       .  S
O269        C288   1.284       .  A
O270      Zr2886   2.444       .  S
O270        C289   1.285   1_556  A
O271        C288   1.287       .  A
O272       Zr280   2.472       .  S
O272        C287   1.291       .  A
O273       Zr278   2.413       .  S
O273       Zr280   2.367       .  S
O274       Zr279   2.411       .  S
O274       Zr280   2.379       .  S
O274        H309   0.967       .  S
O275       Zr278   2.413       .  S
O275       Zr295   2.398       .  S
O275       H2920   0.966       .  S
O276       Zr279   2.402       .  S
O276       Zr295   2.363       .  S
Zr277       O302   2.433       .  S
Zr277       O296   2.439       .  S
Zr277       O304   2.364       .  S
Zr277       O292   2.359       .  S
Zr277       O283   2.393       .  S
Zr277       O284   2.400       .  S
Zr277       O285   2.361       .  S
Zr277       O286   2.360       .  S
Zr278       O297   2.435       .  S
Zr278       O290   2.435       .  S
Zr278       O291   2.499       .  S
Zr278      O2878   2.432       .  S
Zr278       O284   2.391       .  S
Zr278       O285   2.374       .  S
Zr279       O281   2.437       .  S
Zr279       O303   2.436       .  S
Zr279       O305   2.488       .  S
Zr279       O283   2.376       .  S
Zr279       O286   2.384       .  S
Zr280       O306   2.437       .  S
Zr280       O307   2.437       .  S
Zr280       O282   2.437       .  S
Zr280       O283   2.413       .  S
Zr280       O284   2.422       .  S
O281        H318   0.991       .  S
O282        H313   0.990       .  S
O282        H327   0.989       .  S
O284        H310   0.965       .  S
O285       Zr295   2.374       .  S
O286       Zr295   2.388       .  S
O286        H311   0.966       .  S
C287       O2875   1.277       .  A
C287       C5205   1.492       .  S
C288       C2501   1.473       .  S
C289        C355   1.473       .  S
O290        H326   0.990       .  S
O291        C293   1.296       .  A
O292        C293   1.271       .  A
C293       C2309   1.506       .  S
O294       Zr295   2.438       .  S
O294        H323   0.991       .  S
Zr295       O298   2.435       .  S
Zr295       O299   2.437       .  S
Zr295       O300   2.399       .  S
O296        C301   1.284       .  A
O297       H2922   0.990       .  S
O297       H2937   0.990       .  S
O298        H315   0.991       .  S
O299        H319   0.991       .  S
O299        H328   0.990       .  S
O300        C301   1.278       .  A
C301       C2389   1.494       .  S
O302        H321   0.991       .  S
O302        H325   0.990       .  S
O303        H317   0.991       .  S
O303        H324   0.990       .  S
O304        C308   1.273       .  A
O305        C308   1.291       .  A
O306        H316   0.989       .  S
O307        H320   0.991       .  S
C308        C374   1.475       .  S
H312       O2883   0.967       .  S
H314       O2905   0.990       .  S
H329       O2905   0.990       .  S
Zr331       O332   2.441       .  S
Zr331       O333   2.392       .  S
Zr331       O334   2.433       .  S
Zr331       O337   2.455       .  S
Zr331       O339   2.374       .  S
Zr331       O340   2.397       .  S
Zr331       O341   2.406       .  S
Zr331       O342   2.369       .  S
O332        H388   0.991       .  S
O332        H396   0.989       .  S
O333        C353   1.277       .  A
O334        C355   1.285       .  A
O335       Zr345   2.433       .  S
O335        C354   1.285       .  A
O336       Zr344   2.447       .  S
O336        C355   1.287       .  A
O337        C354   1.291       .  A
O338       Zr346   2.467       .  S
O338        C353   1.290       .  A
O339       Zr344   2.404       .  S
O339       Zr346   2.359       .  S
O340       Zr345   2.395       .  S
O340       Zr346   2.379       .  S
O340        H375   0.966       .  S
O341       Zr344   2.423       .  S
O341       Zr361   2.399       .  S
O341        H378   0.966       .  S
O342       Zr345   2.384       .  S
O342       Zr361   2.337       .  S
Zr343       O368   2.440       .  S
Zr343       O362   2.464       .  S
Zr343       O370   2.397       .  S
Zr343       O358   2.394       .  S
Zr343       O349   2.407       .  S
Zr343       O350   2.404       .  S
Zr343       O351   2.372       .  S
Zr343       O352   2.373       .  S
Zr344       O363   2.435       .  S
Zr344       O356   2.435       .  S
Zr344       O357   2.510       .  S
Zr344       O350   2.389       .  S
Zr344       O351   2.372       .  S
Zr345       O347   2.438       .  S
Zr345       O369   2.439       .  S
Zr345       O371   2.468       .  S
Zr345       O349   2.385       .  S
Zr345       O352   2.381       .  S
Zr346       O372   2.436       .  S
Zr346       O373   2.436       .  S
Zr346       O348   2.439       .  S
Zr346       O349   2.415       .  S
Zr346       O350   2.426       .  S
O347        H384   0.991       .  S
O348        H379   0.990       .  S
O348        H393   0.991       .  S
O350        H376   0.967       .  S
O351       Zr361   2.380       .  S
O352       Zr361   2.399       .  S
O352        H377   0.965       .  S
C353       C2485   1.481       .  S
C354       C2562   1.478       .  S
O356        H392   0.990       .  S
O357        C359   1.300       .  A
O358        C359   1.278       .  A
C359       C2421   1.497       .  S
O360       Zr361   2.436       .  S
O360        H389   0.991       .  S
Zr361       O364   2.433       .  S
Zr361       O365   2.436       .  S
Zr361       O366   2.377       .  S
O362        C367   1.287       .  A
O363        H380   0.990       .  S
O363        H395   0.991       .  S
O364        H381   0.991       .  S
O365        H385   0.991       .  S
O365        H394   0.990       .  S
O366        C367   1.267       .  A
C367       C2325   1.463       .  S
O368        H387   0.990       .  S
O368        H391   0.991       .  S
O369        H383   0.990       .  S
O369        H390   0.990       .  S
O370        C374   1.282       .  A
O371        C374   1.286       .  A
O372        H382   0.990       .  S
O373        H386   0.990       .  S
Zr397       O398   2.443       .  S
Zr397       O399   2.445       .  S
Zr397       O400   2.425       .  S
Zr397       O403   2.472       .  S
Zr397       O405   2.388       .  S
Zr397       O406   2.393       .  S
Zr397       O407   2.417       .  S
Zr397       O408   2.273       .  S
O398        H454   0.990       .  S
O398        H462   0.990       .  S
O399        C419   1.284       .  A
O400        C421   1.284       .  A
O401       Zr411   2.400       .  S
O401        C420   1.280       .  A
O402       Zr410   2.429       .  S
O402        C421   1.280       .  A
O403        C420   1.289       .  A
O404       Zr412   2.526       .  S
O404        C419   1.299       .  A
O405       Zr410   2.417       .  S
O405       Zr412   2.373       .  S
O406       Zr411   2.424       .  S
O406       Zr412   2.387       .  S
O406        H441   0.965       .  S
O407       Zr410   2.422       .  S
O407       Zr427   2.359       .  S
O407        H444   0.962       .  S
O408       Zr411   2.293       .  S
O408       Zr427   2.275       .  S
Zr409       O434   2.440       .  S
Zr409       O428   2.488       .  S
Zr409       O436   2.401       .  S
Zr409       O424   2.402       .  S
Zr409       O415   2.428       .  S
Zr409       O416   2.431       .  S
Zr409       O417   2.375       .  S
Zr409       O418   2.372       .  S
Zr410       O429   2.442       .  S
Zr410       O422   2.437       .  S
Zr410       O423   2.481       .  S
Zr410       O416   2.392       .  S
Zr410       O417   2.378       .  S
Zr411       O413   2.440   1_565  S
Zr411       O435   2.436   1_565  S
Zr411       O437   2.504       .  S
Zr411       O415   2.372       .  S
Zr411       O418   2.371       .  S
Zr412       O438   2.435   1_565  S
Zr412       O439   2.437       .  S
Zr412       O414   2.438       .  S
Zr412       O415   2.454       .  S
Zr412       O416   2.447       .  S
O413        H450   0.991   1_545  S
O414        H445   0.990       .  S
O414        H459   0.989       .  S
O416        H442   0.966       .  S
O417       Zr427   2.361       .  S
O418       Zr427   2.378       .  S
O418        H443   0.962       .  S
C419       C2181   1.535       .  S
C420       C2194   1.472       .  S
C421       C2437   1.459       .  S
O422        H458   0.991       .  S
O423        C425   1.291       .  A
O424        C425   1.277       .  A
C425       C2210   1.478       .  S
O426       Zr427   2.437       .  S
O426        H455   0.989       .  S
Zr427       O430   2.443       .  S
Zr427       O431   2.434       .  S
Zr427       O432   2.368       .  S
O428        C433   1.294       .  A
O429        H446   0.989       .  S
O429        H461   0.991       .  S
O430        H447   0.990       .  S
O431        H451   0.991       .  S
O431        H460   0.989       .  S
O432        C433   1.273       .  A
C433       C2242   1.488       .  S
O434        H453   0.990       .  S
O434        H457   0.991       .  S
O435        H449   0.990       .  S
O435        H456   0.991       .  S
O436        C440   1.277       .  A
O437        C440   1.294       .  A
O438        H448   0.990       .  S
O439        H452   0.990       .  S
C440       C2226   1.494       .  S
Zr463       O464   2.439   1_565  S
Zr463       O465   2.423   1_565  S
Zr463       O466   2.434       .  S
Zr463       O469   2.423   1_565  S
Zr463       O471   2.392       .  S
Zr463       O472   2.386   1_565  S
Zr463       O473   2.433       .  S
Zr463       O474   2.397   1_565  S
O464        H520   0.990       .  S
O464        H528   0.990       .  S
O465        C485   1.282   1_545  A
O466        C487   1.272       .  A
O467       Zr477   2.387       .  S
O467        C486   1.275       .  A
O468       Zr476   2.407       .  S
O468        C487   1.267       .  A
O469        C486   1.288       .  A
O470       Zr478   2.563       .  S
O470        C485   1.308       .  A
O471       Zr476   2.391       .  S
O471       Zr478   2.316       .  S
O472       Zr477   2.414       .  S
O472       Zr478   2.371   1_545  S
O472        H507   0.966       .  S
O473       Zr476   2.419       .  S
O473       Zr493   2.395       .  S
O473        H510   0.967       .  S
O474       Zr477   2.410       .  S
O474       Zr493   2.401   1_545  S
Zr475       O500   2.437       .  S
Zr475       O494   2.493       .  S
Zr475       O502   2.445       .  S
Zr475       O490   2.380       .  S
Zr475       O481   2.418       .  S
Zr475       O482   2.438       .  S
Zr475       O483   2.350       .  S
Zr475       O484   2.367       .  S
Zr476       O495   2.431       .  S
Zr476       O488   2.433       .  S
Zr476       O489   2.458       .  S
Zr476       O482   2.397       .  S
Zr476       O483   2.353       .  S
Zr477       O479   2.437       .  S
Zr477       O501   2.439       .  S
Zr477       O503   2.455   1_545  S
Zr477       O481   2.379   1_545  S
Zr477       O484   2.391   1_545  S
Zr478       O504   2.439       .  S
Zr478       O505   2.436       .  S
Zr478       O480   2.438       .  S
Zr478       O481   2.449       .  S
Zr478       O482   2.456       .  S
O479        H516   0.990       .  S
O480        H511   0.989       .  S
O480        H525   0.990       .  S
O482        H508   0.966       .  S
O483       Zr493   2.352       .  S
O484       Zr493   2.381       .  S
O484        H509   0.964       .  S
C485       C2114   1.535   1_565  S
C486       C2130   1.457       .  S
C487       C2370   1.461       .  S
O488        H524   0.990       .  S
O489        C491   1.288       .  A
O490        C491   1.278       .  A
C491       C2162   1.477       .  S
O492       Zr493   2.440   1_545  S
O492        H521   0.990       .  S
Zr493       O496   2.439       .  S
Zr493       O497   2.439       .  S
Zr493       O498   2.454       .  S
O494        C499   1.296       .  A
O495        H512   0.990       .  S
O495        H527   0.989       .  S
O496        H513   0.990       .  S
O497        H517   0.991   1_565  S
O497        H526   0.990       .  S
O498        C499   1.288       .  A
C499       C2149   1.515       .  S
O500        H519   0.991       .  S
O500        H523   0.989       .  S
O501        H515   0.989       .  S
O501        H522   0.990       .  S
O502        C506   1.286       .  A
O503        C506   1.287       .  A
O504        H514   0.990       .  S
O505        H518   0.990       .  S
C506       C2229   1.487       .  S
Zr529       O530   2.441       .  S
Zr529       O531   2.440       .  S
Zr529       O532   2.389       .  S
Zr529       O535   2.399       .  S
Zr529       O537   2.368       .  S
Zr529       O538   2.375       .  S
Zr529       O539   2.401       .  S
Zr529       O540   2.391       .  S
O530        H586   0.990       .  S
O530       H3202   0.990       .  S
O531        C551   1.284       .  A
O532        C553   1.274       .  A
O533       Zr543   2.413       .  S
O533        C552   1.279       .  A
O534       Zr542   2.455       .  S
O534        C553   1.290       .  A
O535        C552   1.280       .  A
O536       Zr544   2.537       .  S
O536        C551   1.301       .  A
O537       Zr542   2.382       .  S
O537       Zr544   2.334       .  S
O538       Zr543   2.409       .  S
O538       Zr544   2.380       .  S
O538        H573   0.966       .  S
O539       Zr542   2.408       .  S
O539       Zr559   2.384       .  S
O539        H576   0.965       .  S
O540       Zr543   2.405       .  S
O540       Zr559   2.389       .  S
Zr541       O566   2.438       .  S
Zr541       O560   2.482       .  S
Zr541       O568   2.449       .  S
Zr541       O556   2.375       .  S
Zr541       O547   2.415       .  S
Zr541       O548   2.432       .  S
Zr541       O549   2.374       .  S
Zr541       O550   2.370       .  S
Zr542       O561   2.434       .  S
Zr542       O554   2.434       .  S
Zr542       O555   2.471       .  S
Zr542       O548   2.401       .  S
Zr542       O549   2.382       .  S
Zr543       O545   2.439       .  S
Zr543       O567   2.437       .  S
Zr543       O569   2.471       .  S
Zr543       O547   2.381       .  S
Zr543       O550   2.395       .  S
Zr544       O570   2.437       .  S
Zr544       O571   2.437       .  S
Zr544       O546   2.437       .  S
Zr544       O547   2.455       .  S
Zr544       O548   2.422       .  S
O545        H582   0.990       .  S
O546        H577   0.990       .  S
O546        H591   0.990       .  S
O548        H574   0.970       .  S
O549       Zr559   2.366       .  S
O550       Zr559   2.376       .  S
O550        H575   0.961       .  S
C551       C2034   1.544       .  S
C552       C4658   1.451       .  S
C553       C2533   1.482       .  S
O554        H590   0.990       .  S
O555        C557   1.292       .  A
O556        C557   1.274       .  A
C557       C2066   1.473       .  S
O558      Zr3167   2.436       .  S
O558        H587   0.991       .  S
Zr559       O562   2.436       .  S
Zr559      O3166   2.435       .  S
Zr559      O3171   2.441       .  S
Zr559       O564   2.417       .  S
O560        C565   1.292       .  A
O561        H578   0.990       .  S
O561        H593   0.989       .  S
O562       H3187   0.990       .  S
O563      Zr3167   2.440       .  S
O563        H583   0.990       .  S
O563        H592   0.990       .  S
O564        C565   1.281       .  A
C565       C2098   1.494       .  S
O566        H585   0.990       .  S
O566        H589   0.991       .  S
O567        H581   0.990       .  S
O567        H588   0.990       .  S
O568        C572   1.287       .  A
O569        C572   1.289       .  A
O570        H580   0.990       .  S
O571        H584   0.990       .  S
C572       C2082   1.506       .  S
H579       O3170   0.990       .  S
H594       O3138   0.991       .  S
Zr595       O596   2.429       .  S
Zr595       O597   2.408       .  S
Zr595       O598   2.439       .  S
Zr595       O601   2.424       .  S
Zr595       O603   2.389       .  S
Zr595       O604   2.394       .  S
Zr595       O605   2.406       .  S
Zr595       O606   2.407       .  S
O596        H652   0.989       .  S
O596        H660   0.990       .  S
O597        C617   1.279       .  A
O598        C619   1.275       .  A
O599       Zr609   2.402       .  S
O599        C618   1.267       .  A
O600       Zr608   2.422       .  S
O600        C619   1.274       .  A
O601        C618   1.280       .  A
O602       Zr610   2.558       .  S
O602       C3225   1.307       .  A
O603       Zr608   2.406       .  S
O603      Zr3218   2.353       .  S
O604       Zr609   2.430       .  S
O604      Zr3218   2.353       .  S
O604        H639   0.967       .  S
O605       Zr608   2.430       .  S
O605       Zr625   2.359       .  S
O605        H642   0.951       .  S
O606       Zr609   2.405       .  S
O606       Zr625   2.373       .  S
Zr607      O3240   2.442       .  S
Zr607       O626   2.514       .  S
Zr607       O634   2.448       .  S
Zr607      O3230   2.361       .  S
Zr607       O613   2.421       .  S
Zr607       O615   2.368       .  S
Zr607       O616   2.358       .  S
Zr607      O3222   2.438       .  S
Zr608       O627   2.441       .  S
Zr608      O3228   2.434       .  S
Zr608      O3229   2.454       .  S
Zr608       O615   2.386       .  S
Zr608      O3222   2.393       .  S
Zr609       O611   2.436       .  S
Zr609       O633   2.438       .  S
Zr609       O635   2.476       .  S
Zr609       O613   2.382       .  S
Zr609       O616   2.388       .  S
Zr610       O636   2.436       .  S
Zr610       O637   2.437       .  S
Zr610       O612   2.442       .  S
Zr610       O614   2.437       .  S
Zr610      O3211   2.348       .  S
Zr610      O3212   2.349       .  S
Zr610      O3221   2.465       .  S
O611        H648   0.989       .  S
O612        H643   0.990       .  S
O612        H657   0.991       .  S
O613      Zr3218   2.457       .  S
O614      Zr3215   2.466       .  S
O614      Zr3216   2.392       .  S
O614        H640   0.965       .  S
O615       Zr625   2.377       .  S
O616       Zr625   2.357       .  S
O616        H641   0.962       .  S
C617       O3210   1.304       .  A
C617       C1970   1.521   1_655  S
C618       C1986   1.467       .  S
C619       C2274   1.473       .  S
O620      Zr3216   2.435       .  S
O620        H656   0.991       .  S
O621      Zr3216   2.472       .  S
O621        C623   1.287       .  A
O622      Zr3215   2.370       .  S
O622        C623   1.266       .  A
C623       C2021   1.481       .  S
O624       Zr625   2.434       .  S
O624        H653   0.990       .  S
Zr625       O628   2.432       .  S
Zr625       O629   2.442       .  S
Zr625       O630   2.392       .  S
O626        C631   1.299       .  A
O627        H644   0.990       .  S
O627        H659   0.990       .  S
O628        H645   0.990       .  S
O629        H649   0.991       .  S
O629        H658   0.990       .  S
O630        C631   1.275       .  A
C631       C2005   1.496       .  S
O632      Zr3215   2.438       .  S
O632        H651   0.991       .  S
O632        H655   0.990       .  S
O633        H647   0.990       .  S
O633        H654   0.990       .  S
O634        C638   1.290       .  A
O635        C638   1.290       .  A
O636        H646   0.990       .  S
O637        H650   0.991       .  S
C638       C2085   1.514       .  S
Zr661       O662   2.441       .  S
Zr661       O663   2.491       .  S
Zr661       O664   2.416       .  S
Zr661       O667   2.396       .  S
Zr661       O669   2.368       .  S
Zr661       O670   2.374       .  S
Zr661       O671   2.411       .  S
Zr661       O672   2.421       .  S
O662        H718   0.990       .  S
O662        H726   0.991       .  S
O663        C683   1.296       .  A
O664        C685   1.285       .  A
O665       Zr675   2.542       .  S
O665        C684   1.306       .  A
O666       Zr674   2.463       .  S
O666        C685   1.287       .  A
O667        C684   1.278       .  A
O668       Zr676   2.379       .  S
O668        C683   1.275       .  A
O669       Zr674   2.397       .  S
O669       Zr676   2.393       .  S
O670       Zr675   2.375       .  S
O670       Zr676   2.366       .  S
O670        H705   0.966       .  S
O671       Zr674   2.389       .  S
O671       Zr691   2.409       .  S
O671        H708   0.966       .  S
O672       Zr675   2.390       .  S
O672       Zr691   2.429       .  S
Zr673       O698   2.439       .  S
Zr673       O692   2.428       .  S
Zr673       O700   2.412       .  S
Zr673       O688   2.465       .  S
Zr673       O679   2.409       .  S
Zr673       O680   2.400       .  S
Zr673       O681   2.380       .  S
Zr673       O682   2.400       .  S
Zr674       O693   2.437       .  S
Zr674       O686   2.434       .  S
Zr674       O687   2.436       .  S
Zr674       O680   2.408       .  S
Zr674       O681   2.410       .  S
Zr675       O677   2.435       .  S
Zr675       O699   2.436       .  S
Zr675       O701   2.469       .  S
Zr675       O679   2.418       .  S
Zr675       O682   2.429       .  S
Zr676       O702   2.434       .  S
Zr676       O703   2.437       .  S
Zr676       O678   2.437       .  S
Zr676       O679   2.376       .  S
Zr676       O680   2.353       .  S
O677        H714   0.990       .  S
O678        H709   0.990       .  S
O678        H723   0.990       .  S
O680        H706   0.964       .  S
O681       Zr691   2.376       .  S
O682       Zr691   2.363       .  S
O682        H707   0.967       .  S
C683       C2213   1.490       .  S
C684       C2146   1.510       .  S
C685        C751   1.475       .  S
O686        H722   0.990       .  S
O687        C689   1.286       .  A
O688        C689   1.291       .  A
C689       C2069   1.487       .  S
O690       Zr691   2.435       .  S
O690        H719   0.990       .  S
Zr691       O694   2.435       .  S
Zr691       O695   2.437       .  S
Zr691       O696   2.481       .  S
O692        C697   1.280       .  A
O693        H710   0.990       .  S
O693        H725   0.991       .  S
O694        H711   0.989       .  S
O695        H715   0.989       .  S
O695        H724   0.990       .  S
O696        C697   1.292       .  A
C697       C2002   1.516       .  S
O698        H717   0.989       .  S
O698        H721   0.990       .  S
O699        H713   0.991       .  S
O699        H720   0.990       .  S
O700        C704   1.282       .  A
O701        C704   1.290       .  A
O702        H712   0.990       .  S
O703        H716   0.991       .  S
C704        C770   1.476       .  S
Zr727       O728   2.440       .  S
Zr727       O729   2.450       .  S
Zr727       O730   2.371       .  S
Zr727       O733   2.378       .  S
Zr727       O735   2.363       .  S
Zr727       O736   2.377       .  S
Zr727       O737   2.398       .  S
Zr727       O738   2.404       .  S
O728        H784   0.990       .  S
O728        H792   0.990       .  S
O729        C749   1.286       .  A
O730        C751   1.274       .  A
O731       Zr741   2.496       .  S
O731        C750   1.297       .  A
O732       Zr740   2.495       .  S
O732        C751   1.295       .  A
O733        C750   1.275       .  A
O734       Zr742   2.385       .  S
O734        C749   1.277       .  A
O735       Zr740   2.379       .  S
O735       Zr742   2.383       .  S
O736       Zr741   2.386       .  S
O736       Zr742   2.358       .  S
O736        H771   0.966       .  S
O737       Zr740   2.387       .  S
O737       Zr757   2.405       .  S
O737        H774   0.966       .  S
O738       Zr741   2.397       .  S
O738       Zr757   2.418       .  S
Zr739      O3372   2.442       .  S
Zr739       O758   2.416       .  S
Zr739       O754   2.425       .  S
Zr739      O3374   2.401       .  S
Zr739       O745   2.398       .  S
Zr739       O746   2.394       .  S
Zr739       O747   2.384       .  S
Zr739       O748   2.387       .  S
Zr740       O759   2.436       .  S
Zr740       O752   2.433       .  S
Zr740       O753   2.440       .  S
Zr740       O746   2.421       .  S
Zr740       O747   2.399       .  S
Zr741       O743   2.434       .  S
Zr741       O765   2.436       .  S
Zr741      O3375   2.460       .  S
Zr741       O745   2.406       .  S
Zr741       O748   2.414       .  S
Zr742       O768   2.436       .  S
Zr742       O769   2.435       .  S
Zr742       O744   2.437       .  S
Zr742       O745   2.383       .  S
Zr742       O746   2.355       .  S
O743        H780   0.990       .  S
O744        H775   0.990       .  S
O744        H789   0.990       .  S
O746        H772   0.963       .  S
O747       Zr757   2.372       .  S
O748       Zr757   2.365       .  S
O748        H773   0.966       .  S
C749       C2165   1.486       .  S
C750       C2245   1.500       .  S
O752        H788   0.990       .  S
O753        C755   1.286       .  A
O754        C755   1.284       .  A
C755       C2018   1.483       .  S
O756       Zr757   2.437       .  S
O756        H785   0.990       .  S
Zr757       O760   2.435       .  S
Zr757       O761   2.439       .  S
Zr757       O762   2.461       .  S
O758        C763   1.278       .  A
O759        H776   0.990       .  S
O759        H791   0.990       .  S
O760        H777   0.991       .  S
O761        H781   0.990       .  S
O761        H790   0.990       .  S
O762        C763   1.289       .  A
C763       C2101   1.487       .  S
O764      Zr3347   2.443       .  S
O764        H783   0.990       .  S
O764       H3395   0.991       .  S
O765        H779   0.990       .  S
O765        H786   0.990       .  S
O766      Zr3347   2.420       .  S
O766        C770   1.284       .  A
O767      Zr3349   2.466       .  S
O767        C770   1.289       .  A
O768        H778   0.990       .  S
O769        H782   0.989       .  S
H787       O3372   0.991       .  S
Zr793       O794   2.437       .  S
Zr793       O795   2.468       .  S
Zr793       O796   2.420       .  S
Zr793       O799   2.401       .  S
Zr793       O801   2.384       .  S
Zr793       O802   2.407       .  S
Zr793       O803   2.427       .  S
Zr793       O804   2.423       .  S
O794        H850   0.990       .  S
O794        H858   0.991       .  S
O795        C815   1.278       .  A
O796        C817   1.281       .  A
O797       Zr807   2.448       .  S
O797        C816   1.284       .  A
O798       Zr806   2.489       .  S
O798        C817   1.293       .  A
O799        C816   1.275       .  A
O800       Zr808   2.392       .  S
O800        C815   1.264       .  A
O801       Zr806   2.352       .  S
O801       Zr808   2.379       .  S
O802       Zr807   2.367       .  S
O802       Zr808   2.370       .  S
O802        H837   0.960       .  S
O803       Zr806   2.380       .  S
O803       Zr823   2.451       .  S
O803        H840   0.965       .  S
O804       Zr807   2.383       .  S
O804       Zr823   2.439       .  S
Zr805       O830   2.441       .  S
Zr805       O824   2.440       .  S
Zr805       O832   2.436       .  S
Zr805       O820   2.459       .  S
Zr805       O811   2.403       .  S
Zr805       O812   2.404       .  S
Zr805       O813   2.388       .  S
Zr805       O814   2.386       .  S
Zr806       O825   2.435       .  S
Zr806       O818   2.431       .  S
Zr806       O819   2.409       .  S
Zr806       O812   2.419       .  S
Zr806       O813   2.412       .  S
Zr807       O809   2.433       .  S
Zr807       O831   2.438       .  S
Zr807       O833   2.379       .  S
Zr807       O811   2.418       .  S
Zr807       O814   2.391       .  S
Zr808       O834   2.431       .  S
Zr808       O835   2.438       .  S
Zr808       O810   2.439       .  S
Zr808       O811   2.382       .  S
Zr808       O812   2.350       .  S
O809        H846   0.990       .  S
O810        H841   0.988       .  S
O810        H855   0.991       .  S
O812        H838   0.966       .  S
O813       Zr823   2.373       .  S
O814       Zr823   2.351       .  S
O814        H839   0.964       .  S
C815       C1957   1.480       .  S
C816       C1922   1.482       .  S
C817       C1938   1.503       .  S
O818        H854   0.989       .  S
O819        C821   1.279   1_554  A
O820        C821   1.293   1_554  A
C821       C1906   1.487       .  S
O822       Zr823   2.439       .  S
O822        H851   0.990       .  S
Zr823       O826   2.436       .  S
Zr823       O827   2.436       .  S
Zr823       O828   2.538       .  S
O824        C829   1.285       .  A
O825        H842   0.991       .  S
O825        H857   0.990       .  S
O826        H843   0.990       .  S
O827        H847   0.991       .  S
O827        H856   0.989       .  S
O828        C829   1.304       .  A
C829       C2517   1.544       .  S
O830        H849   0.991       .  S
O830        H853   0.989       .  S
O831        H845   0.990       .  S
O831        H852   0.991       .  S
O832        C836   1.287       .  A
O833        C836   1.273       .  A
O834        H844   0.990       .  S
O835        H848   0.990       .  S
C836       C2053   1.442       .  S
Zr859      O3468   2.442       .  S
Zr859       O861   2.482       .  S
Zr859       O862   2.440       .  S
Zr859      O3473   2.408       .  S
Zr859       O867   2.376       .  S
Zr859       O868   2.387       .  S
Zr859       O869   2.414       .  S
Zr859       O870   2.423       .  S
O860      Zr3467   2.440       .  S
O860        H916   0.991       .  S
O860        H924   0.990       .  S
O861        C881   1.293       .  A
O862        C883   1.285       .  A
O863       Zr873   2.415       .  S
O863       C3490   1.271       .  A
O864       Zr872   2.462       .  S
O864        C883   1.288       .  A
O865      Zr3467   2.415       .  S
O865        C882   1.274       .  A
O866       Zr874   2.394       .  S
O866        C881   1.275       .  A
O867       Zr872   2.392       .  S
O867       Zr874   2.386       .  S
O868       Zr873   2.416       .  S
O868       Zr874   2.361       .  S
O868        H903   0.962       .  S
O869       Zr872   2.388       .  S
O869      Zr3497   2.426       .  S
O869        H906   0.964       .  S
O870       Zr873   2.415       .  S
O870      Zr3497   2.417       .  S
Zr871       O896   2.432       .  S
Zr871       O890   2.388       .  S
Zr871       O898   2.410       .  S
Zr871       O886   2.396       .  S
Zr871       O877   2.386       .  S
Zr871       O878   2.388       .  S
Zr871       O879   2.381       .  S
Zr871       O880   2.371       .  S
Zr872       O891   2.438       .  S
Zr872       O884   2.435       .  S
Zr872       O885   2.436       .  S
Zr872       O878   2.396       .  S
Zr872       O879   2.398       .  S
Zr873       O897   2.436       .  S
Zr873      O3483   2.437   1_554  S
Zr873       O899   2.443       .  S
Zr873       O877   2.406       .  S
Zr873       O880   2.376       .  S
Zr874       O900   2.437       .  S
Zr874       O901   2.433       .  S
Zr874       O876   2.438       .  S
Zr874       O877   2.399       .  S
Zr874       O878   2.368       .  S
O875      Zr3481   2.434       .  S
O875        H912   0.990       .  S
O876        H907   0.991       .  S
O876        H921   0.990       .  S
O878        H904   0.965       .  S
O879      Zr3497   2.366       .  S
O880      Zr3497   2.349       .  S
O880        H905   0.962       .  S
C881       C1877   1.496       .  S
C882       O3471   1.271       .  A
C882       C1893   1.476       .  S
C883       C1941   1.509       .  S
O884        H920   0.990       .  S
O885        C887   1.285       .  A
O886        C887   1.281       .  A
C887       C1861   1.484       .  S
O888       Zr889   2.437       .  S
O888        H917   0.990       .  S
Zr889       O892   2.436       .  S
Zr889       O893   2.438       .  S
Zr889       O894   2.546       .  S
Zr889      O3477   2.452       .  S
Zr889      O3478   2.427       .  S
Zr889      O3487   2.364       .  S
Zr889      O3488   2.342       .  S
O890        C895   1.277       .  A
O891        H908   0.990       .  S
O891        H923   0.990       .  S
O892        H909   0.990       .  S
O893        H913   0.990       .  S
O893        H922   0.990       .  S
O894       C3503   1.304       .  A
C895       O3502   1.299       .  A
C895       C2469   1.498       .  S
O896        H915   0.990       .  S
O896        H919   0.990       .  S
O897        H911   0.990       .  S
O897        H918   0.990       .  S
O898        C902   1.285       .  A
O899        C902   1.285       .  A
O900        H910   0.989       .  S
O901        H914   0.989       .  S
C902       C2197   1.477   1_545  S
Zr925       O926   2.439       .  S
Zr925       O927   2.480       .  S
Zr925       O928   2.409       .  S
Zr925       O931   2.406       .  S
Zr925       O933   2.382       .  S
Zr925       O934   2.392       .  S
Zr925       O935   2.429       .  S
Zr925       O936   2.432       .  S
O926        H982   0.990       .  S
O926        H990   0.991       .  S
O927        C947   1.285       .  A
O928        C949   1.279       .  A
O929       Zr939   2.462       .  S
O929        C948   1.288       .  A
O930       Zr938   2.486       .  S
O930        C949   1.293       .  A
O931        C948   1.280       .  A
O932       Zr940   2.402       .  S
O932        C947   1.265       .  A
O933       Zr938   2.383       .  S
O933       Zr940   2.370       .  S
O934       Zr939   2.384       .  S
O934       Zr940   2.358       .  S
O934        H969   0.963       .  S
O935       Zr938   2.394       .  S
O935       Zr955   2.450       .  S
O935        H972   0.966       .  S
O936       Zr939   2.389       .  S
O936       Zr955   2.451       .  S
Zr937       O962   2.441       .  S
Zr937       O956   2.492       .  S
Zr937       O964   2.423       .  S
Zr937       O952   2.463       .  S
Zr937       O944   2.411       .  S
Zr937       O945   2.376       .  S
Zr937       O946   2.390       .  S
Zr937       O943   2.283       .  S
Zr938       O957   2.438   1_655  S
Zr938       O950   2.441   1_655  S
Zr938       O951   2.434       .  S
Zr938       O944   2.419       .  S
Zr938       O945   2.423       .  S
Zr939       O941   2.438       .  S
Zr939       O963   2.443       .  S
Zr939       O965   2.444       .  S
Zr939       O946   2.405       .  S
Zr939       O943   2.279       .  S
Zr940       O966   2.435       .  S
Zr940       O967   2.436       .  S
Zr940       O942   2.445       .  S
Zr940       O944   2.331       .  S
Zr940       O943   2.298       .  S
O941        H978   0.991       .  S
O942        H973   0.991       .  S
O942        H987   0.990       .  S
O944        H970   0.962       .  S
O945       Zr955   2.396       .  S
O946       Zr955   2.390       .  S
O946        H971   0.966       .  S
C947       C1845   1.488       .  S
C948       C1810   1.484       .  S
C949       C1826   1.489       .  S
O950        H986   0.990       .  S
O951        C953   1.283       .  A
O952        C953   1.293       .  A
C953       C1794   1.484       .  S
O954       Zr955   2.442       .  S
O954        H983   0.991       .  S
Zr955       O958   2.441   1_655  S
Zr955       O959   2.435       .  S
Zr955       O960   2.514       .  S
O956        C961   1.294       .  A
O957        H974   0.991       .  S
O957        H989   0.989       .  S
O958        H975   0.990       .  S
O959        H979   0.990       .  S
O959        H988   0.990       .  S
O960        C961   1.296       .  A
C961       C2341   1.556       .  S
O962        H981   0.990       .  S
O962        H985   0.988       .  S
O963        H977   0.990       .  S
O963        H984   0.990       .  S
O964        C968   1.284       .  A
O965        C968   1.284       .  A
O966        H976   0.990       .  S
O967        H980   0.990       .  S
C968       C2133   1.483       .  S
Zr991       O992   2.442       .  S
Zr991       O993   2.518       .  S
Zr991       O994   2.450       .  S
Zr991       O997   2.405       .  S
Zr991       O999   2.370       .  S
Zr991      O1000   2.382       .  S
Zr991      O1001   2.430       .  S
Zr991      O1002   2.440       .  S
O992       H1048   0.990       .  S
O992       H1056   0.990       .  S
O993       C1013   1.300       .  A
O994       C1015   1.286       .  A
O995      Zr1005   2.419       .  S
O995       C1014   1.276       .  A
O996      Zr1004   2.438       .  S
O996       C1015   1.283       .  A
O997       C1014   1.275       .  A
O998      Zr1006   2.419       .  S
O998       C1013   1.281       .  A
O999      Zr1004   2.400       .  S
O999      Zr1006   2.386       .  S
O1000     Zr1005   2.416       .  S
O1000     Zr1006   2.363       .  S
O1000      H1035   0.964       .  S
O1001     Zr1004   2.385       .  S
O1001     Zr1021   2.447       .  S
O1001      H1038   0.967       .  S
O1002     Zr1005   2.393       .  S
O1002     Zr1021   2.441       .  S
Zr1003     O1028   2.420       .  S
Zr1003     O1022   2.403       .  S
Zr1003     O1030   2.420       .  S
Zr1003     O1018   2.419       .  S
Zr1003     O1009   2.401       .  S
Zr1003     O1010   2.405       .  S
Zr1003     O1011   2.377       .  S
Zr1003     O1012   2.385       .  S
Zr1004     O1023   2.436       .  S
Zr1004     O1016   2.435       .  S
Zr1004     O1017   2.405       .  S
Zr1004     O1010   2.400       .  S
Zr1004     O1011   2.403       .  S
Zr1005     O1007   2.434       .  S
Zr1005     O1029   2.439       .  S
Zr1005     O1031   2.413       .  S
Zr1005     O1009   2.410       .  S
Zr1005     O1012   2.396       .  S
Zr1006     O1032   2.435       .  S
Zr1006     O1033   2.433       .  S
Zr1006     O1008   2.438       .  S
Zr1006     O1009   2.389       .  S
Zr1006     O1010   2.370       .  S
O1007      H1044   0.990       .  S
O1008      H1039   0.989       .  S
O1008      H1053   0.990       .  S
O1010      H1036   0.963       .  S
O1011     Zr1021   2.365       .  S
O1012     Zr1021   2.354       .  S
O1012      H1037   0.965       .  S
C1013      C1765   1.516       .  S
C1014      C1778   1.465       .  S
C1015      C1829   1.489       .  S
O1016      H1052   0.990       .  S
O1017      C1019   1.282       .  A
O1018      C1019   1.282       .  A
C1019      C1746   1.471   1_655  S
O1020     Zr1021   2.437       .  S
O1020      H1049   0.990       .  S
Zr1021     O1024   2.434       .  S
Zr1021     O1025   2.438       .  S
Zr1021     O1026   2.536       .  S
O1022      C1027   1.276       .  A
O1023      H1040   0.990   1_655  S
O1023      H1055   0.990       .  S
O1024      H1041   0.990       .  S
O1025      H1045   0.991       .  S
O1025      H1054   0.989       .  S
O1026      C1027   1.302       .  A
C1027      C2258   1.513       .  S
O1028      H1047   0.986       .  S
O1028      H1051   0.988       .  S
O1029      H1043   0.989       .  S
O1029      H1050   0.991       .  S
O1030      C1034   1.270       .  A
O1031      C1034   1.277       .  A
O1032      H1042   0.990       .  S
O1033      H1046   0.990       .  S
C1034      C1989   1.456       .  S
Zr1057     O3666   2.441       .  S
Zr1057     O1063   2.452       .  S
Zr1057     O3667   2.389       .  S
Zr1057     O3668   2.418       .  S
Zr1057     O1065   2.389       .  S
Zr1057     O1066   2.385       .  S
Zr1057     O1067   2.400       .  S
Zr1057     O1068   2.374       .  S
O1058     Zr3665   2.441       .  S
O1058      H1114   0.991       .  S
O1058      H1122   0.990       .  S
O1059     Zr3665   2.376       .  S
O1059      C3687   1.272       .  A
O1060     Zr3665   2.407       .  S
O1060      C1081   1.281       .  A
O1061     Zr1071   2.383       .  S
O1061      C1080   1.275       .  A
O1062     Zr3678   2.479       .  S
O1062      C1081   1.293       .  A
O1063      C1080   1.289       .  A
O1064     Zr1072   2.481       .  S
O1064      C1079   1.292       .  A
O1065     Zr1070   2.411       .  S
O1065     Zr1072   2.364       .  S
O1066     Zr1071   2.389       .  S
O1066     Zr1072   2.370       .  S
O1066      H1101   0.964       .  S
O1067     Zr1070   2.425       .  S
O1067     Zr1087   2.378       .  S
O1067      H3712   0.965       .  S
O1068     Zr1071   2.408       .  S
O1068     Zr1087   2.362       .  S
Zr1069     O1094   2.441       .  S
Zr1069     O1088   2.469       .  S
Zr1069     O1096   2.423       .  S
Zr1069     O1084   2.391       .  S
Zr1069     O1075   2.403       .  S
Zr1069     O1076   2.421       .  S
Zr1069     O1077   2.380       .  S
Zr1069     O1078   2.366       .  S
Zr1070     O1089   2.434       .  S
Zr1070     O1082   2.437       .  S
Zr1070     O1083   2.539       .  S
Zr1070     O3670   2.481       .  S
Zr1070     O1076   2.394       .  S
Zr1070     O1077   2.388       .  S
Zr1071     O1073   2.436       .  S
Zr1071     O1095   2.439       .  S
Zr1071     O1097   2.437       .  S
Zr1071     O1075   2.380       .  S
Zr1071     O1078   2.393       .  S
Zr1072     O1098   2.436       .  S
Zr1072     O1099   2.435       .  S
Zr1072     O1074   2.436       .  S
Zr1072     O1075   2.416       .  S
Zr1072     O1076   2.424       .  S
O1073      H1110   0.989       .  S
O1074      H1105   0.991       .  S
O1074      H1119   0.990       .  S
O1076      H1102   0.966       .  S
O1077     Zr1087   2.382       .  S
O1078     Zr1087   2.396       .  S
O1078      H1103   0.967       .  S
C1079      O3667   1.274       .  A
C1079      C4562   1.475       .  S
C1080      C1890   1.466       .  S
C1081      C1147   1.479       .  S
O1082      H3726   0.990       .  S
O1083      C1085   1.305       .  A
O1084      C1085   1.275       .  A
C1085      C1762   1.508       .  S
O1086     Zr1087   2.438       .  S
O1086      H1115   0.989       .  S
Zr1087     O1090   2.436       .  S
Zr1087     O1091   2.436       .  S
Zr1087     O1092   2.354       .  S
O1088      C1093   1.289       .  A
O1089      H3714   0.989       .  S
O1089      H3729   0.991       .  S
O1090      H1107   0.989       .  S
O1091      H1111   0.989       .  S
O1091      H1120   0.991       .  S
O1092      C1093   1.271       .  A
C1093      C1813   1.483       .  S
O1094      H1113   0.990       .  S
O1094      H1117   0.990       .  S
O1095      H1109   0.991       .  S
O1095      H1116   0.989       .  S
O1096      C1100   1.285       .  A
O1097      C1100   1.279       .  A
O1098      H1108   0.990       .  S
O1099      H1112   0.990       .  S
C1100      C1166   1.476       .  S
H1104      O3675   0.966       .  S
H1106      O3697   0.990       .  S
H1118      O3690   0.989       .  S
H1121      O3697   0.989       .  S
Zr1123     O1124   2.432       .  S
Zr1123     O1125   2.406       .  S
Zr1123     O1126   2.429       .  S
Zr1123     O1129   2.440       .  S
Zr1123     O1131   2.378       .  S
Zr1123     O1132   2.389       .  S
Zr1123     O1133   2.396       .  S
Zr1123     O1134   2.379       .  S
O1124      H1180   0.988       .  S
O1124      H1188   0.991       .  S
O1125      C1145   1.277       .  A
O1126      C1147   1.286       .  A
O1127     Zr1137   2.423       .  S
O1127      C1146   1.282       .  A
O1128     Zr1136   2.460       .  S
O1128      C1147   1.289       .  A
O1129      C1146   1.288       .  A
O1130     Zr1138   2.478       .  S
O1130      C1145   1.294       .  A
O1131     Zr1136   2.407       .  S
O1131     Zr1138   2.364       .  S
O1132     Zr1137   2.406       .  S
O1132     Zr1138   2.372       .  S
O1132      H1167   0.966       .  S
O1133     Zr1136   2.419       .  S
O1133     Zr1153   2.384       .  S
O1133      H1170   0.966       .  S
O1134     Zr1137   2.398       .  S
O1134     Zr1153   2.352       .  S
Zr1135     O1160   2.444       .  S
Zr1135     O1154   2.438       .  S
Zr1135     O1162   2.356       .  S
Zr1135     O1150   2.366       .  S
Zr1135     O1141   2.405       .  S
Zr1135     O1142   2.401       .  S
Zr1135     O1143   2.366       .  S
Zr1135     O1144   2.365       .  S
Zr1136     O1155   2.435       .  S
Zr1136     O1148   2.433       .  S
Zr1136     O1149   2.513       .  S
Zr1136     O1142   2.388       .  S
Zr1136     O1143   2.385       .  S
Zr1137     O1139   2.435       .  S
Zr1137     O1161   2.435       .  S
Zr1137     O1163   2.494       .  S
Zr1137     O1141   2.384       .  S
Zr1137     O1144   2.384       .  S
Zr1138     O1164   2.436       .  S
Zr1138     O1165   2.436       .  S
Zr1138     O1140   2.438       .  S
Zr1138     O1141   2.423       .  S
Zr1138     O1142   2.417       .  S
O1139      H1176   0.991       .  S
O1140      H1171   0.991       .  S
O1140      H1185   0.990       .  S
O1142      H1168   0.969       .  S
O1143     Zr1153   2.382       .  S
O1144     Zr1153   2.383       .  S
O1144      H1169   0.967       .  S
C1145      C1874   1.510       .  S
C1146      C1925   1.464       .  S
O1148      H1184   0.989       .  S
O1149      C1151   1.299       .  A
O1150      C1151   1.271       .  A
C1151      C1842   1.489       .  S
O1152     Zr1153   2.438       .  S
O1152      H1181   0.990       .  S
Zr1153     O1156   2.435       .  S
Zr1153     O1157   2.438       .  S
Zr1153     O1158   2.360       .  S
O1154      C1159   1.283       .  A
O1155      H1172   0.991       .  S
O1155      H1187   0.990       .  S
O1156      H1173   0.991       .  S
O1157      H1177   0.990       .  S
O1157      H1186   0.990       .  S
O1158      C1159   1.272       .  A
C1159      C1781   1.473       .  S
O1160      H1179   0.992       .  S
O1160      H1183   0.990       .  S
O1161      H1175   0.990       .  S
O1161      H1182   0.990       .  S
O1162      C1166   1.268       .  A
O1163      C1166   1.292       .  A
O1164      H1174   0.991       .  S
O1165      H1178   0.990       .  S
Zr1189     O1190   2.439   1_545  S
Zr1189     O1191   2.419   1_545  S
Zr1189     O1192   2.423       .  S
Zr1189     O1195   2.417   1_545  S
Zr1189     O1197   2.368       .  S
Zr1189     O1198   2.389   1_545  S
Zr1189     O1199   2.398       .  S
Zr1189     O1200   2.391       .  S
O1190      H1246   0.990       .  S
O1190      H1254   0.990   1_565  S
O1191      C1211   1.282       .  A
O1192      C1213   1.283       .  A
O1193     Zr1203   2.443       .  S
O1193      C1212   1.283       .  A
O1194     Zr1202   2.408       .  S
O1194      C1213   1.282       .  A
O1195      C1212   1.280       .  A
O1196     Zr1204   2.543       .  S
O1196      C1211   1.304   1_545  A
O1197     Zr1202   2.378       .  S
O1197     Zr1204   2.338       .  S
O1198     Zr1203   2.421       .  S
O1198     Zr1204   2.376   1_565  S
O1198      H1233   0.966       .  S
O1199     Zr1202   2.413       .  S
O1199     Zr1219   2.393       .  S
O1199      H1236   0.967       .  S
O1200     Zr1203   2.395   1_545  S
O1200     Zr1219   2.363       .  S
Zr1201     O1226   2.440       .  S
Zr1201     O1220   2.500       .  S
Zr1201     O1228   2.439       .  S
Zr1201     O1216   2.398       .  S
Zr1201     O1207   2.420       .  S
Zr1201     O1208   2.433       .  S
Zr1201     O1209   2.367       .  S
Zr1201     O1210   2.379       .  S
Zr1202     O1221   2.435       .  S
Zr1202     O1214   2.435       .  S
Zr1202     O1215   2.453       .  S
Zr1202     O1208   2.393       .  S
Zr1202     O1209   2.364       .  S
Zr1203     O1205   2.436       .  S
Zr1203     O1227   2.437       .  S
Zr1203     O1229   2.490   1_565  S
Zr1203     O1207   2.387   1_565  S
Zr1203     O1210   2.393   1_565  S
Zr1204     O1230   2.439   1_545  S
Zr1204     O1231   2.438       .  S
Zr1204     O1206   2.436       .  S
Zr1204     O1207   2.451       .  S
Zr1204     O1208   2.422       .  S
O1205      H1242   0.991       .  S
O1206      H1237   0.991       .  S
O1206      H1251   0.989       .  S
O1208      H1234   0.966       .  S
O1209     Zr1219   2.356       .  S
O1210     Zr1219   2.379       .  S
O1210      H1235   0.966       .  S
C1211      C2178   1.529       .  S
C1212      C2450   1.459       .  S
C1213      C1858   1.485       .  S
O1214      H1250   0.990       .  S
O1215      C1217   1.286       .  A
O1216      C1217   1.271       .  A
C1217      C1698   1.491       .  S
O1218     Zr1219   2.434       .  S
O1218      H1247   0.990       .  S
Zr1219     O1222   2.436       .  S
Zr1219     O1223   2.439       .  S
Zr1219     O1224   2.402       .  S
O1220      C1225   1.295       .  A
O1221      H1238   0.990       .  S
O1221      H1253   0.990       .  S
O1222      H1239   0.990       .  S
O1223      H1243   0.989       .  S
O1223      H1252   0.991       .  S
O1224      C1225   1.280       .  A
C1225      C1733   1.494       .  S
O1226      H1245   0.989       .  S
O1226      H1249   0.991       .  S
O1227      H1241   0.990       .  S
O1227      H1248   0.991       .  S
O1228      C1232   1.286       .  A
O1229      C1232   1.295       .  A
O1230      H1240   0.990       .  S
O1231      H1244   0.990       .  S
C1232      C1717   1.508       .  S
Zr1255     O1256   2.403       .  S
Zr1255     O1257   2.404       .  S
Zr1255     O1258   2.412       .  S
Zr1255     O1261   2.398       .  S
Zr1255     O1263   2.369       .  S
Zr1255     O1264   2.400       .  S
Zr1255     O1265   2.395       .  S
Zr1255     O1266   2.412       .  S
O1256      H1312   0.989   1_455  S
O1256      H1320   0.987       .  S
O1257      C1277   1.277       .  A
O1258      C1279   1.286       .  A
O1259     Zr1269   2.440       .  S
O1259      C1278   1.277       .  A
O1260     Zr1268   2.412       .  S
O1260      C1279   1.280       .  A
O1261      C1278   1.269       .  A
O1262     Zr1270   2.583       .  S
O1262      C1277   1.312       .  A
O1263     Zr1268   2.407       .  S
O1263     Zr1270   2.358       .  S
O1264     Zr1269   2.420       .  S
O1264     Zr1270   2.339       .  S
O1264      H1299   0.960       .  S
O1265     Zr1268   2.408       .  S
O1265     Zr1285   2.382       .  S
O1265      H1302   0.968       .  S
O1266     Zr1269   2.402       .  S
O1266     Zr1285   2.363       .  S
Zr1267     O1292   2.438       .  S
Zr1267     O1286   2.522       .  S
Zr1267     O1294   2.413       .  S
Zr1267     O1282   2.411       .  S
Zr1267     O1273   2.432       .  S
Zr1267     O1274   2.442       .  S
Zr1267     O1275   2.366       .  S
Zr1267     O1276   2.369       .  S
Zr1268     O1287   2.437       .  S
Zr1268     O1280   2.434       .  S
Zr1268     O1281   2.439       .  S
Zr1268     O1274   2.391       .  S
Zr1268     O1275   2.384       .  S
Zr1269     O1271   2.431       .  S
Zr1269     O1293   2.434   1_545  S
Zr1269     O1295   2.500       .  S
Zr1269     O1273   2.390       .  S
Zr1269     O1276   2.380       .  S
Zr1270     O1296   2.434   1_545  S
Zr1270     O1297   2.435       .  S
Zr1270     O1272   2.439       .  S
Zr1270     O1273   2.464       .  S
Zr1270     O1274   2.455       .  S
O1271      H1308   0.991       .  S
O1272      H1303   0.990       .  S
O1272      H1317   0.990       .  S
O1274      H1300   0.967       .  S
O1275     Zr1285   2.376       .  S
O1276     Zr1285   2.384       .  S
O1276      H1301   0.965       .  S
C1277      C2117   1.543   1_455  S
C1278      C2354   1.457       .  S
C1279      C1797   1.473   1_455  S
O1280      H1316   0.991       .  S
O1281      C1283   1.285       .  A
O1282      C1283   1.280       .  A
C1283      C1682   1.477       .  S
O1284     Zr1285   2.435       .  S
O1284      H1313   0.989       .  S
Zr1285     O1288   2.436       .  S
Zr1285     O1289   2.439       .  S
Zr1285     O1290   2.377       .  S
O1286      C1291   1.300       .  A
O1287      H1304   0.990       .  S
O1287      H1319   0.989       .  S
O1288      H1305   0.990       .  S
O1289      H1309   0.990       .  S
O1289      H1318   0.990       .  S
O1290      C1291   1.274       .  A
C1291      C1666   1.502       .  S
O1292      H1311   0.990       .  S
O1292      H1315   0.990       .  S
O1293      H1307   0.990       .  S
O1293      H1314   0.989       .  S
O1294      C1298   1.280       .  A
O1295      C1298   1.295       .  A
O1296      H1306   0.990       .  S
O1297      H1310   0.990       .  S
C1298      C1714   1.497       .  S
Zr1321     O1322   2.438       .  S
Zr1321     O1323   2.417       .  S
Zr1321     O1324   2.434       .  S
Zr1321     O1327   2.459       .  S
Zr1321     O1329   2.389       .  S
Zr1321     O1330   2.402       .  S
Zr1321     O1331   2.422       .  S
Zr1321     O1332   2.270       .  S
O1322      H1378   0.990       .  S
O1322      H3994   0.990       .  S
O1323      C1343   1.283       .  A
O1324      C1345   1.271       .  A
O1325     Zr1335   2.400       .  S
O1325      C1344   1.281       .  A
O1326     Zr1334   2.416       .  S
O1326      C1345   1.270       .  A
O1327      C1344   1.289       .  A
O1328     Zr1336   2.591       .  S
O1328      C1343   1.313       .  A
O1329     Zr1334   2.427       .  S
O1329     Zr1336   2.346       .  S
O1330     Zr1335   2.412       .  S
O1330     Zr1336   2.379       .  S
O1330      H1365   0.970       .  S
O1331     Zr1334   2.447       .  S
O1331     Zr1351   2.377       .  S
O1331      H1368   0.963       .  S
O1332     Zr1335   2.291       .  S
O1332     Zr1351   2.273       .  S
Zr1333     O1358   2.440       .  S
Zr1333     O1352   2.537       .  S
Zr1333     O1360   2.407       .  S
Zr1333     O1348   2.415       .  S
Zr1333     O1340   2.442       .  S
Zr1333     O1341   2.369       .  S
Zr1333     O1342   2.366       .  S
Zr1333     O1339   2.355       .  S
Zr1334     O1353   2.444       .  S
Zr1334     O1346   2.435       .  S
Zr1334     O1347   2.472       .  S
Zr1334     O1340   2.393       .  S
Zr1334     O1341   2.387       .  S
Zr1335     O1337   2.442       .  S
Zr1335     O1359   2.443       .  S
Zr1335     O1361   2.493       .  S
Zr1335     O1342   2.368       .  S
Zr1335     O1339   2.271       .  S
Zr1336     O1362   2.438       .  S
Zr1336     O1363   2.437       .  S
Zr1336     O1338   2.438       .  S
Zr1336     O1340   2.469       .  S
Zr1336     O1339   2.368       .  S
O1337      H1374   0.991       .  S
O1338      H1369   0.990       .  S
O1338      H1383   0.990       .  S
O1340      H1366   0.966       .  S
O1341     Zr1351   2.377       .  S
O1342     Zr1351   2.401       .  S
O1342      H1367   0.964       .  S
C1343      C2037   1.560       .  S
C1344      C5154   1.469       .  S
C1345      C1909   1.465       .  S
O1346      H1382   0.989       .  S
O1347      C1349   1.290       .  A
O1348      C1349   1.279       .  A
C1349      C1618   1.498       .  S
O1350     Zr3959   2.439       .  S
O1350      H1379   0.991       .  S
Zr1351     O1354   2.441       .  S
Zr1351     O3958   2.442       .  S
Zr1351     O3963   2.434       .  S
Zr1351     O1356   2.363       .  S
O1352      C1357   1.302       .  A
O1353      H1370   0.990       .  S
O1353      H1385   0.990       .  S
O1354      H3979   0.990       .  S
O1355     Zr3959   2.438   1_554  S
O1355      H1375   0.990       .  S
O1355      H1384   0.990       .  S
O1356      C1357   1.266       .  A
C1357      C1650   1.486       .  S
O1358      H1377   0.990       .  S
O1358      H1381   0.990       .  S
O1359      H1373   0.991       .  S
O1359      H1380   0.990       .  S
O1360      C1364   1.278       .  A
O1361      C1364   1.293       .  A
O1362      H1372   0.989       .  S
O1363      H1376   0.990       .  S
C1364      C1637   1.498       .  S
H1371      O3962   0.990       .  S
H1386      O3930   0.990       .  S
Zr1387     O1388   2.436       .  S
Zr1387     O1389   2.422       .  S
Zr1387     O1390   2.386       .  S
Zr1387     O1393   2.373       .  S
Zr1387     O1395   2.352       .  S
Zr1387     O1396   2.381       .  S
Zr1387     O1397   2.408       .  S
Zr1387     O1398   2.344       .  S
O1388      H1444   0.990       .  S
O1388      H1452   0.991       .  S
O1389      C1409   1.278       .  A
O1390      C1411   1.277       .  A
O1391     Zr1401   2.452       .  S
O1391      C1410   1.285       .  A
O1392     Zr1400   2.435       .  S
O1392      C1411   1.283       .  A
O1393      C1410   1.273       .  A
O1394     Zr1402   2.536       .  S
O1394      C4017   1.301       .  A
O1395     Zr1400   2.412       .  S
O1395     Zr4010   2.381       .  S
O1396     Zr1401   2.432       .  S
O1396     Zr4010   2.402       .  S
O1396      H1431   0.966       .  S
O1397     Zr1400   2.433       .  S
O1397     Zr1417   2.389       .  S
O1397      H1434   0.962       .  S
O1398     Zr1401   2.349       .  S
O1398     Zr1417   2.363       .  S
Zr1399     O4032   2.437       .  S
Zr1399     O1418   2.513       .  S
Zr1399     O1426   2.424       .  S
Zr1399     O4022   2.405       .  S
Zr1399     O1405   2.440       .  S
Zr1399     O1407   2.378       .  S
Zr1399     O1408   2.402       .  S
Zr1399     O4014   2.440       .  S
Zr1400     O1419   2.441       .  S
Zr1400     O4020   2.435       .  S
Zr1400     O4021   2.455       .  S
Zr1400     O1407   2.393       .  S
Zr1400     O4014   2.403       .  S
Zr1401     O1403   2.430       .  S
Zr1401     O1425   2.435       .  S
Zr1401     O1427   2.483       .  S
Zr1401     O1405   2.367       .  S
Zr1401     O1408   2.396       .  S
Zr1402     O1428   2.438       .  S
Zr1402     O1429   2.436       .  S
Zr1402     O1404   2.438       .  S
Zr1402     O1406   2.436       .  S
Zr1402     O4003   2.358   1_554  S
Zr1402     O4004   2.375   1_554  S
Zr1402     O4013   2.454       .  S
O1403      H1440   0.990       .  S
O1404      H1435   0.991       .  S
O1404      H1449   0.988       .  S
O1405     Zr4010   2.462       .  S
O1406     Zr4007   2.436   1_554  S
O1406     Zr4008   2.397   1_554  S
O1406      H1432   0.965       .  S
O1407     Zr1417   2.337       .  S
O1408     Zr1417   2.378       .  S
O1408      H1433   0.964       .  S
C1409      O4002   1.299       .  A
C1409      C1973   1.524       .  S
C1410      C2293   1.482       .  S
C1411      C1749   1.457       .  S
O1412     Zr4008   2.435   1_554  S
O1412      H1448   0.990       .  S
O1413     Zr4008   2.475       .  S
O1413      C1415   1.289       .  A
O1414     Zr4007   2.398   1_554  S
O1414      C1415   1.270   1_554  A
C1415      C1602   1.499       .  S
O1416     Zr1417   2.424       .  S
O1416      H1445   0.990       .  S
Zr1417     O1420   2.435       .  S
Zr1417     O1421   2.440       .  S
Zr1417     O1422   2.402       .  S
O1418      C1423   1.298       .  A
O1419      H1436   0.989       .  S
O1419      H1451   0.990       .  S
O1420      H1437   0.990       .  S
O1421      H1441   0.990       .  S
O1421      H1450   0.989       .  S
O1422      C1423   1.280       .  A
C1423      C1586   1.508       .  S
O1424     Zr4007   2.437   1_554  S
O1424      H1443   0.991       .  S
O1424      H1447   0.990       .  S
O1425      H1439   0.990       .  S
O1425      H1446   0.990       .  S
O1426      C1430   1.283       .  A
O1427      C1430   1.293       .  A
O1428      H1438   0.990       .  S
O1429      H1442   0.991       .  S
C1430      C1634   1.492       .  S
Zr1453     O1454   2.436       .  S
Zr1453     O1455   2.412       .  S
Zr1453     O1456   2.377       .  S
Zr1453     O1459   2.388       .  S
Zr1453     O1461   2.386       .  S
Zr1453     O1462   2.388       .  S
Zr1453     O1463   2.397       .  S
Zr1453     O1464   2.397       .  S
O1454      H1510   0.990       .  S
O1454      H1518   0.990       .  S
O1455      C1475   1.274       .  A
O1456      C1477   1.276       .  A
O1457     Zr1467   2.514       .  S
O1457      C1476   1.299       .  A
O1458     Zr1466   2.519       .  S
O1458      C1477   1.299       .  A
O1459      C1476   1.276       .  A
O1460     Zr1468   2.423       .  S
O1460      C1475   1.273       .  A
O1461     Zr1466   2.383       .  S
O1461     Zr1468   2.383       .  S
O1462     Zr1467   2.383       .  S
O1462     Zr1468   2.374       .  S
O1462      H1497   0.964       .  S
O1463     Zr1466   2.397       .  S
O1463     Zr1483   2.408       .  S
O1463      H1500   0.968       .  S
O1464     Zr1467   2.399       .  S
O1464     Zr1483   2.416       .  S
Zr1465     O1490   2.440       .  S
Zr1465     O1484   2.450       .  S
Zr1465     O1492   2.436       .  S
Zr1465     O1480   2.432       .  S
Zr1465     O1471   2.412       .  S
Zr1465     O1472   2.412       .  S
Zr1465     O1473   2.385       .  S
Zr1465     O1474   2.381       .  S
Zr1466     O1485   2.434       .  S
Zr1466     O1478   2.434       .  S
Zr1466     O1479   2.465       .  S
Zr1466     O1472   2.417       .  S
Zr1466     O1473   2.414       .  S
Zr1467     O1469   2.436       .  S
Zr1467     O1491   2.437       .  S
Zr1467     O1493   2.469       .  S
Zr1467     O1471   2.425       .  S
Zr1467     O1474   2.418       .  S
Zr1468     O1494   2.437       .  S
Zr1468     O1495   2.444       .  S
Zr1468     O1470   2.443       .  S
Zr1468     O1471   2.401       .  S
Zr1468     O1472   2.390       .  S
O1469      H1506   0.990       .  S
O1470      H1501   0.990       .  S
O1470      H1515   0.990       .  S
O1472      H1498   0.965       .  S
O1473     Zr1483   2.371       .  S
O1474     Zr1483   2.373       .  S
O1474      H1499   0.966       .  S
C1475      C1701   1.467       .  S
C1476      C1669   1.492       .  S
C1477      C1562   1.498       .  S
O1478      H1514   0.990       .  S
O1479      C1481   1.291       .  A
O1480      C1481   1.286       .  A
C1481      C1621   1.487       .  S
O1482     Zr1483   2.436       .  S
O1482      H1511   0.990       .  S
Zr1483     O1486   2.436       .  S
Zr1483     O1487   2.437       .  S
Zr1483     O1488   2.467       .  S
O1484      C1489   1.285       .  A
O1485      H1502   0.990       .  S
O1485      H1517   0.990       .  S
O1486      H1503   0.990       .  S
O1487      H1507   0.990       .  S
O1487      H1516   0.989       .  S
O1488      C1489   1.290       .  A
C1489      C1589   1.519       .  S
O1490      H1509   0.991       .  S
O1490      H1513   0.990       .  S
O1491      H1505   0.990       .  S
O1491      H1512   0.990       .  S
O1492      C1496   1.289       .  A
O1493      C1496   1.288       .  A
O1494      H1504   0.989       .  S
O1495      H1508   0.991       .  S
C1496      C1543   1.493       .  S
Zr1519     O4128   2.441       .  S
Zr1519     O1521   2.438       .  S
Zr1519     O1525   2.351       .  S
Zr1519     O4130   2.356       .  S
Zr1519     O1527   2.379       .  S
Zr1519     O1528   2.386   1_556  S
Zr1519     O1529   2.390       .  S
Zr1519     O1530   2.402   1_556  S
O1520     Zr4127   2.437       .  S
O1520      H1576   0.989       .  S
O1520      H1584   0.990       .  S
O1521      C1541   1.278       .  A
O1522     Zr4127   2.372       .  S
O1522      C1543   1.276       .  A
O1523     Zr1533   2.534       .  S
O1523      C1542   1.303       .  A
O1524     Zr4140   2.512       .  S
O1524      C1543   1.298       .  A
O1525      C1542   1.265   1_556  A
O1526     Zr1534   2.405   1_556  S
O1526      C1541   1.269       .  A
O1527     Zr1532   2.371       .  S
O1527     Zr1534   2.392   1_556  S
O1528     Zr1533   2.377       .  S
O1528     Zr1534   2.369       .  S
O1528      H1563   0.963       .  S
O1529     Zr1532   2.386       .  S
O1529     Zr1549   2.410   1_556  S
O1529      H1566   0.968       .  S
O1530     Zr1533   2.403       .  S
O1530     Zr1549   2.422       .  S
Zr1531     O1556   2.442       .  S
Zr1531     O1550   2.420       .  S
Zr1531     O1558   2.435       .  S
Zr1531     O1546   2.431       .  S
Zr1531     O1537   2.400       .  S
Zr1531     O1538   2.409       .  S
Zr1531     O1539   2.391       .  S
Zr1531     O1540   2.386       .  S
Zr1532     O1551   2.436       .  S
Zr1532     O1544   2.433       .  S
Zr1532     O1545   2.436   1_556  S
Zr1532     O4132   2.526       .  S
Zr1532     O1538   2.425   1_556  S
Zr1532     O1539   2.415   1_556  S
Zr1533     O1535   2.436       .  S
Zr1533     O1557   2.436       .  S
Zr1533     O1559   2.482       .  S
Zr1533     O1537   2.427       .  S
Zr1533     O1540   2.420       .  S
Zr1534     O1560   2.436       .  S
Zr1534     O1561   2.439       .  S
Zr1534     O1536   2.437       .  S
Zr1534     O1537   2.390       .  S
Zr1534     O1538   2.370       .  S
O1535      H1572   0.991       .  S
O1536      H1567   0.989       .  S
O1536      H1581   0.990       .  S
O1538      H1564   0.965       .  S
O1539     Zr1549   2.364       .  S
O1540     Zr1549   2.365       .  S
O1540      H1565   0.966       .  S
C1541      C1605   1.475       .  S
C1542      C1653   1.507   1_554  S
O1544      H1580   0.989       .  S
O1545      C1547   1.286       .  A
O1546      C1547   1.286       .  A
C1547      C1685   1.470       .  S
O1548     Zr1549   2.437       .  S
O1548      H1577   0.989   1_554  S
Zr1549     O1552   2.436       .  S
Zr1549     O1553   2.438       .  S
Zr1549     O1554   2.463       .  S
O1550      C1555   1.281       .  A
O1551      H1568   0.989       .  S
O1551      H1583   0.991       .  S
O1552      H1569   0.990       .  S
O1553      H1573   0.989       .  S
O1553      H1582   0.991       .  S
O1554      C1555   1.289       .  A
C1555      C1730   1.507       .  S
O1556      H1575   0.991       .  S
O1556      H1579   0.989       .  S
O1557      H1571   0.991       .  S
O1557      H1578   0.990       .  S
O1558      C1562   1.290       .  A
O1559      C1562   1.291       .  A
O1560      H1570   0.990       .  S
O1561      H1574   0.990       .  S
C1585      C1586   1.406       .  A
C1585      C1590   1.405       .  A
C1585      H1592   1.082       .  S
C1586      C1587   1.413       .  A
C1587      C1588   1.426       .  A
C1587      C1594   1.504       .  S
C1588      C1589   1.421       .  A
C1588      H1593   1.083       .  S
C1589      C1590   1.420       .  A
C1590      C1591   1.509       .  S
C1591      H1595   1.109       .  S
C1591      H1596   1.109       .  S
C1591      H1597   1.111       .  S
C1594      H1598   1.110       .  S
C1594      H1599   1.110       .  S
C1594      H1600   1.111       .  S
C1601      C1606   1.403       .  A
C1601      C4210   1.410       .  A
C1601      H1608   1.083       .  S
C1602      C1603   1.429       .  A
C1602      C4209   1.411       .  A
C1603      C1604   1.398       .  A
C1603      C1610   1.512   1_556  S
C1604      C1605   1.396       .  A
C1604      H1609   1.083       .  S
C1605      C4214   1.411       .  A
C1606      C4213   1.408       .  A
C1606      C1607   1.507       .  S
C1607      H1611   1.111       .  S
C1607      H1612   1.108       .  S
C1607      H1613   1.110       .  S
C1610      H1614   1.110       .  S
C1610      H1615   1.107       .  S
C1610      H1616   1.111       .  S
C1617      C1618   1.405       .  A
C1617      C1622   1.406       .  A
C1617      H1624   1.084       .  S
C1618      C1619   1.422       .  A
C1619      C1620   1.412       .  A
C1619      C1626   1.507       .  S
C1620      C1621   1.403       .  A
C1620      H1625   1.084       .  S
C1621      C1622   1.418       .  A
C1622      C1623   1.509       .  S
C1623      H1627   1.111       .  S
C1623      H1628   1.107       .  S
C1623      H1629   1.110       .  S
C1626      H1630   1.110       .  S
C1626      H1631   1.109       .  S
C1626      H1632   1.111       .  S
C1633      C1634   1.403       .  A
C1633      C1638   1.411       .  A
C1633      H1640   1.084       .  S
C1634      C1635   1.416       .  A
C1635      C1636   1.410       .  A
C1635      C4250   1.505       .  S
C1636      C1637   1.404       .  A
C1636      H1641   1.084       .  S
C1637      C1638   1.422       .  A
C1638      C1639   1.508       .  S
C1639      H1643   1.111       .  S
C1639      H1644   1.107       .  S
C1639      H1645   1.110       .  S
C1642      C4243   1.507   1_554  S
C1642      H1646   1.108       .  S
C1642      H1647   1.110       .  S
C1642      H1648   1.111       .  S
C1649      C1650   1.400       .  A
C1649      C1654   1.404       .  A
C1649      H1656   1.085       .  S
C1650      C4259   1.422       .  A
C1651      C1652   1.408   1_556  A
C1651      C4258   1.418       .  A
C1651      C1658   1.505   1_556  S
C1652      C1653   1.403   1_554  A
C1652      H1657   1.084       .  S
C1653      C4262   1.443       .  A
C1654      C4261   1.422       .  A
C1654      C1655   1.508       .  S
C1655      H1659   1.111       .  S
C1655      H1660   1.110       .  S
C1655      H1661   1.108       .  S
C1658      H1662   1.109   1_554  S
C1658      H1663   1.110       .  S
C1658      H1664   1.111       .  S
C1665      C1666   1.408       .  A
C1665      C1670   1.401       .  A
C1665      H1672   1.085       .  S
C1666      C1667   1.417       .  A
C1667      C1668   1.425       .  A
C1667      C1674   1.504       .  S
C1668      C1669   1.414       .  A
C1668      H1673   1.084       .  S
C1669      C1670   1.411       .  A
C1670      C1671   1.509       .  S
C1671      H1675   1.111       .  S
C1671      H1676   1.108       .  S
C1671      H1677   1.110       .  S
C1674      H1678   1.110       .  S
C1674      H1679   1.110       .  S
C1674      H1680   1.111       .  S
C1681      C1682   1.406       .  A
C1681      C1686   1.404       .  A
C1681      H1688   1.084       .  S
C1682      C1683   1.415       .  A
C1683      C1684   1.400       .  A
C1683      C1690   1.507       .  S
C1684      C1685   1.401       .  A
C1684      H1689   1.085       .  S
C1685      C1686   1.410       .  A
C1686      C1687   1.506       .  S
C1687      H1691   1.111       .  S
C1687      H1692   1.110       .  S
C1687      H1693   1.110       .  S
C1690      H1694   1.110       .  S
C1690      H1695   1.109       .  S
C1690      H1696   1.111       .  S
C1697      C1698   1.410       .  A
C1697      C1702   1.405       .  A
C1697      H1704   1.083       .  S
C1698      C1699   1.427       .  A
C1699      C1700   1.395       .  A
C1699      C1706   1.511       .  S
C1700      C1701   1.395       .  A
C1700      H1705   1.084       .  S
C1701      C1702   1.408       .  A
C1702      C1703   1.505       .  S
C1703      H1707   1.111       .  S
C1703      H1708   1.108       .  S
C1703      H1709   1.110       .  S
C1706      H1710   1.110       .  S
C1706      H1711   1.108       .  S
C1706      H1712   1.111       .  S
C1713      C1714   1.405       .  A
C1713      C1718   1.416       .  A
C1713      H1720   1.084       .  S
C1714      C1715   1.415       .  A
C1715      C1716   1.413       .  A
C1715      C1722   1.506   1_545  S
C1716      C1717   1.408       .  A
C1716      H1721   1.084   1_545  S
C1717      C1718   1.423       .  A
C1718      C1719   1.507       .  S
C1719      H1723   1.111       .  S
C1719      H1724   1.109       .  S
C1719      H1725   1.110       .  S
C1722      H1726   1.110   1_565  S
C1722      H1727   1.110       .  S
C1722      H1728   1.111       .  S
C1729      C1730   1.418       .  A
C1729      C1734   1.418       .  A
C1729      H1736   1.083       .  S
C1730      C1731   1.419       .  A
C1731      C1732   1.402       .  A
C1731      C1738   1.509       .  S
C1732      C1733   1.406       .  A
C1732      H1737   1.085       .  S
C1733      C1734   1.409       .  A
C1734      C1735   1.503       .  S
C1735      H1739   1.111       .  S
C1735      H1740   1.109       .  S
C1735      H1741   1.110       .  S
C1738      H1742   1.109       .  S
C1738      H1743   1.109       .  S
C1738      H1744   1.111       .  S
C1745      C1746   1.404       .  A
C1745      C1750   1.392       .  A
C1745      H1752   1.084       .  S
C1746      C1747   1.418       .  A
C1747      C1748   1.393       .  A
C1747      C1754   1.505   1_455  S
C1748      C1749   1.400       .  A
C1748      H1753   1.083       .  S
C1749      C1750   1.410       .  A
C1750      C1751   1.508       .  S
C1751      H1755   1.111       .  S
C1751      H1756   1.109       .  S
C1751      H1757   1.109       .  S
C1754      H1758   1.110       .  S
C1754      H1759   1.109       .  S
C1754      H1760   1.111       .  S
C1761      C1762   1.412       .  A
C1761      C1766   1.420       .  A
C1761      H1768   1.080       .  S
C1762      C1763   1.413       .  A
C1763      C1764   1.418       .  A
C1763      C1770   1.506       .  S
C1764      C1765   1.415       .  A
C1764      H1769   1.084       .  S
C1765      C1766   1.416       .  A
C1766      C1767   1.506       .  S
C1767      H1771   1.110       .  S
C1767      H1772   1.110       .  S
C1767      H1773   1.110       .  S
C1770      H1774   1.110       .  S
C1770      H1775   1.111       .  S
C1770      H1776   1.111       .  S
C1777      C1778   1.404       .  A
C1777      C1782   1.395       .  A
C1777      H1784   1.083       .  S
C1778      C1779   1.408       .  A
C1779      C1780   1.396       .  A
C1779      C1786   1.509       .  S
C1780      C1781   1.412       .  A
C1780      H1785   1.085       .  S
C1781      C1782   1.412       .  A
C1782      C1783   1.508       .  S
C1783      H1787   1.111       .  S
C1783      H1788   1.108       .  S
C1783      H1789   1.110       .  S
C1786      H1790   1.111       .  S
C1786      H1791   1.109       .  S
C1786      H1792   1.111       .  S
C1793      C1794   1.416       .  A
C1793      C1798   1.402       .  A
C1793      H1800   1.084       .  S
C1794      C1795   1.422       .  A
C1795      C1796   1.411       .  A
C1795      C1802   1.504   1_655  S
C1796      C1797   1.403       .  A
C1796      H1801   1.084   1_655  S
C1797      C1798   1.403       .  A
C1798      C1799   1.501       .  S
C1799      H1803   1.111       .  S
C1799      H1804   1.110       .  S
C1799      H1805   1.110       .  S
C1802      H1806   1.108       .  S
C1802      H1807   1.109       .  S
C1802      H1808   1.111       .  S
C1809      C1810   1.413       .  A
C1809      C1814   1.405       .  A
C1809      H1816   1.082       .  S
C1810      C1811   1.410       .  A
C1811      C1812   1.398       .  A
C1811      C1818   1.507       .  S
C1812      C1813   1.411       .  A
C1812      H1817   1.085       .  S
C1813      C1814   1.407       .  A
C1814      C1815   1.505       .  S
C1815      H1819   1.110       .  S
C1815      H1820   1.104       .  S
C1815      H1821   1.110       .  S
C1818      H1822   1.110       .  S
C1818      H1823   1.107       .  S
C1818      H1824   1.111       .  S
C1825      C1826   1.403       .  A
C1825      C1830   1.407       .  A
C1825      H1832   1.084       .  S
C1826      C1827   1.419       .  A
C1827      C1828   1.411       .  A
C1827      C1834   1.508       .  S
C1828      C1829   1.405       .  A
C1828      H1833   1.084       .  S
C1829      C1830   1.414       .  A
C1830      C1831   1.505       .  S
C1831      H1835   1.111       .  S
C1831      H1836   1.110       .  S
C1831      H1837   1.106       .  S
C1834      H1838   1.110       .  S
C1834      H1839   1.108       .  S
C1834      H1840   1.111       .  S
C1841      C1842   1.406       .  A
C1841      C1846   1.418       .  A
C1841      H1848   1.084       .  S
C1842      C1843   1.422       .  A
C1843      C1844   1.400       .  A
C1843      C1850   1.510       .  S
C1844      C1845   1.398       .  A
C1844      H1849   1.083       .  S
C1845      C1846   1.419       .  A
C1846      C1847   1.506       .  S
C1847      H1851   1.111       .  S
C1847      H1852   1.109       .  S
C1847      H1853   1.111       .  S
C1850      H1854   1.107       .  S
C1850      H1855   1.111       .  S
C1850      H1856   1.111       .  S
C1857      C1858   1.408       .  A
C1857      C1862   1.397       .  A
C1857      H1864   1.083       .  S
C1858      C1859   1.416       .  A
C1859      C1860   1.398       .  A
C1859      C1866   1.509       .  S
C1860      C1861   1.409       .  A
C1860      H1865   1.084       .  S
C1861      C1862   1.416       .  A
C1862      C1863   1.510       .  S
C1863      H1867   1.111       .  S
C1863      H1868   1.109       .  S
C1863      H1869   1.110       .  S
C1866      H1870   1.108   1_545  S
C1866      H1871   1.109   1_545  S
C1866      H1872   1.111   1_545  S
C1873      C1874   1.404       .  A
C1873      C1878   1.405       .  A
C1873      H1880   1.083       .  S
C1874      C1875   1.431       .  A
C1875      C1876   1.412       .  A
C1875      C1882   1.508       .  S
C1876      C1877   1.400       .  A
C1876      H1881   1.084       .  S
C1877      C1878   1.423       .  A
C1878      C1879   1.511       .  S
C1879      H1883   1.111       .  S
C1879      H1884   1.110       .  S
C1879      H1885   1.108       .  S
C1882      H1886   1.110       .  S
C1882      H1887   1.109       .  S
C1882      H1888   1.108       .  S
C1889      C1894   1.399       .  A
C1889      C4498   1.400       .  A
C1889      H1896   1.085       .  S
C1890      C1891   1.414       .  A
C1890      C4497   1.401       .  A
C1891      C1892   1.393       .  A
C1891      C1898   1.510       .  S
C1892      C1893   1.401       .  A
C1892      H1897   1.083       .  S
C1893      C4502   1.420       .  A
C1894      C4501   1.418       .  A
C1894      C1895   1.508       .  S
C1895      H1899   1.111       .  S
C1895      H1900   1.110       .  S
C1895      H1901   1.103       .  S
C1898      H1902   1.108       .  S
C1898      H1903   1.108       .  S
C1898      H1904   1.111       .  S
C1905      C1910   1.400       .  A
C1905      C4514   1.408       .  A
C1905      H4520   1.084       .  S
C1906      C1907   1.430       .  A
C1906      C4513   1.406       .  A
C1907      C4516   1.396       .  A
C1907      C1914   1.504       .  S
C1908      C1909   1.397       .  A
C1908      C4515   1.394       .  A
C1908      H1913   1.084       .  S
C1909      C1910   1.408       .  A
C1910      C1911   1.505       .  S
C1911      H1915   1.110       .  S
C1911      H1916   1.106       .  S
C1911      H1917   1.110       .  S
H1912      C4513   1.084       .  S
C1914      H1918   1.109       .  S
C1914      H1919   1.109       .  S
C1914      H1920   1.111       .  S
C1921      C1922   1.411       .  A
C1921      C1926   1.399       .  A
C1921      H1928   1.083       .  S
C1922      C1923   1.415       .  A
C1923      C1924   1.404       .  A
C1923      C1930   1.507       .  S
C1924      C1925   1.403       .  A
C1924      H1929   1.085       .  S
C1925      C1926   1.404       .  A
C1926      C1927   1.506       .  S
C1927      H1931   1.111       .  S
C1927      H1932   1.110       .  S
C1927      H1933   1.109       .  S
C1930      H1934   1.110       .  S
C1930      H1935   1.107       .  S
C1930      H1936   1.111       .  S
C1937      C1938   1.410       .  A
C1937      C1942   1.415       .  A
C1937      H1944   1.084       .  S
C1938      C1939   1.417       .  A
C1939      C1940   1.409       .  A
C1939      C1946   1.507       .  S
C1940      C1941   1.410       .  A
C1940      H1945   1.083       .  S
C1941      C1942   1.421       .  A
C1942      C1943   1.507       .  S
C1943      H1947   1.111       .  S
C1943      H1948   1.110       .  S
C1943      H1949   1.110       .  S
C1946      H1950   1.110       .  S
C1946      H1951   1.106       .  S
C1946      H1952   1.111       .  S
C1953      C1954   1.399       .  A
C1953      C1958   1.407       .  A
C1953      H1960   1.084       .  S
C1954      C3687   1.473       .  S
C1954      C1955   1.414       .  A
C1955      C1956   1.401       .  A
C1955      C4570   1.508       .  S
C1956      C1957   1.404       .  A
C1956      H1961   1.085       .  S
C1957      C1958   1.419       .  A
C1958      C1959   1.503       .  S
C1959      H1963   1.108       .  S
C1959      H1964   1.099       .  S
C1959      H1965   1.108       .  S
C1962      C4563   1.507       .  S
C1962      H1966   1.110       .  S
C1962      H1967   1.110       .  S
C1962      H1968   1.111       .  S
C1969      C1974   1.422       .  A
C1969      C4578   1.411       .  A
C1969      H1976   1.084   1_455  S
C1970      C1971   1.423       .  A
C1970      C4577   1.407       .  A
C1971      C1972   1.430       .  A
C1971      C1978   1.504       .  S
C1972      C1973   1.413       .  A
C1972      H1977   1.083       .  S
C1973      C4582   1.422       .  A
C1974      C4581   1.425       .  A
C1974      C1975   1.507       .  S
C1975      H1979   1.110       .  S
C1975      H1980   1.108       .  S
C1975      H4589   1.110   1_554  S
C1978      H1983   1.110       .  S
C1978      H1984   1.111       .  S
C1978      H4590   1.110       .  S
H1981      C4583   1.104       .  S
H1982      C4586   1.110       .  S
C1985      C1986   1.407       .  A
C1985      C1990   1.394       .  A
C1985      H1992   1.084       .  S
C1986      C1987   1.419       .  A
C1987      C1988   1.393       .  A
C1987      C1994   1.513       .  S
C1988      C1989   1.400       .  A
C1988      H1993   1.084       .  S
C1989      C1990   1.408       .  A
C1990      C1991   1.507       .  S
C1991      H1995   1.110       .  S
C1991      H1996   1.110       .  S
C1991      H1997   1.111       .  S
C1994      H1998   1.106       .  S
C1994      H1999   1.110       .  S
C1994      H2000   1.110       .  S
C2001      C2002   1.418       .  A
C2001      C2006   1.418       .  A
C2001      H2008   1.084       .  S
C2002      C2003   1.420       .  A
C2003      C2004   1.412       .  A
C2003      C2010   1.507       .  S
C2004      C2005   1.407       .  A
C2004      H2009   1.084       .  S
C2005      C2006   1.409       .  A
C2006      C2007   1.505       .  S
C2007      H2011   1.111       .  S
C2007      H2012   1.110       .  S
C2007      H2013   1.111       .  S
C2010      H2014   1.110       .  S
C2010      H2015   1.109       .  S
C2010      H2016   1.111       .  S
C2017      C2018   1.411       .  A
C2017      C2022   1.401       .  A
C2017      H2024   1.083       .  S
C2018      C2019   1.413       .  A
C2019      C2020   1.400       .  A
C2019      C2026   1.509       .  S
C2020      C2021   1.410       .  A
C2020      H2025   1.084       .  S
C2021      C2022   1.410       .  A
C2022      C4631   1.507       .  S
C2023      C4630   1.508       .  S
C2023      H2027   1.111       .  S
C2023      H2028   1.110       .  S
C2023      H2029   1.110       .  S
C2026      H2030   1.111       .  S
C2026      H2031   1.109       .  S
C2026      H2032   1.111       .  S
C2033      C2034   1.421       .  A
C2033      C2038   1.443       .  A
C2033      H2040   1.083       .  S
C2034      C2035   1.423       .  A
C2035      C2036   1.421       .  A
C2035      C2042   1.512       .  S
C2036      C2037   1.419       .  A
C2036      H2041   1.082       .  S
C2037      C2038   1.428       .  A
C2038      C2039   1.501       .  S
C2039      H2043   1.111       .  S
C2039      H2044   1.110       .  S
C2039      H2045   1.110       .  S
C2042      H2046   1.108       .  S
C2042      H2047   1.111       .  S
C2042      H2048   1.110       .  S
C2049      C2050   1.406       .  A
C2049      C2054   1.397       .  A
C2049      H4664   1.084       .  S
C2050      C3160   1.461       .  S
C2050      C2051   1.418       .  A
C2051      C2052   1.389       .  A
C2051      C2058   1.507       .  S
C2052      C2053   1.390       .  A
C2052      H2057   1.085       .  S
C2053      C2054   1.403       .  A
C2054      C2055   1.507       .  S
C2055      H2059   1.111       .  S
C2055      H2060   1.110       .  S
C2055      H2061   1.107       .  S
H2056      C4657   1.085       .  S
C2058      H2062   1.108       .  S
C2058      H2063   1.109       .  S
C2058      H2064   1.111       .  S
C2065      C2066   1.398       .  A
C2065      C2070   1.405       .  A
C2065      H2072   1.083       .  S
C2066      C2067   1.416       .  A
C2067      C2068   1.401       .  A
C2067      C2074   1.508       .  S
C2068      C2069   1.404       .  A
C2068      H2073   1.085       .  S
C2069      C2070   1.421       .  A
C2070      C2071   1.505       .  S
C2071      H2075   1.111       .  S
C2071      H2076   1.110       .  S
C2071      H2077   1.106       .  S
C2074      H2078   1.109       .  S
C2074      H2079   1.110       .  S
C2074      H2080   1.110       .  S
C2081      C2082   1.408       .  A
C2081      C2086   1.421       .  A
C2081      H2088   1.084       .  S
C2082      C2083   1.416       .  A
C2083      C2084   1.404       .  A
C2083      C2090   1.502       .  S
C2084      C2085   1.407       .  A
C2084      H4697   1.083       .  S
C2085      C2086   1.424       .  A
C2086      C2087   1.504       .  S
C2087      H2091   1.111       .  S
C2087      H2092   1.110       .  S
C2087      H2093   1.107       .  S
H2089      C4692   1.084       .  S
C2090      H2094   1.111       .  S
C2090      H2095   1.110       .  S
C2090      H4704   1.110       .  S
H2096      C4698   1.111       .  S
C2097      C2102   1.402       .  A
C2097      C4706   1.409       .  A
C2097      H2104   1.084       .  S
C2098      C2099   1.417       .  A
C2098      C4705   1.401       .  A
C2099      C2100   1.407       .  A
C2099      C2106   1.508       .  S
C2100      C4709   1.407       .  A
C2100      H2105   1.084       .  S
C2101      C2102   1.411       .  A
C2101      C4708   1.409       .  A
C2102      C2103   1.509       .  S
C2103      H2107   1.111       .  S
C2103      H2108   1.109       .  S
C2103      H2109   1.111       .  S
C2106      H2110   1.108       .  S
C2106      H2111   1.108       .  S
C2106      H2112   1.111       .  S
C2113      C2114   1.417   1_565  A
C2113      C2118   1.438       .  A
C2113      H2120   1.082       .  S
C2114      C2115   1.422       .  A
C2115      C2116   1.421       .  A
C2115      C2122   1.507       .  S
C2116      C2117   1.414       .  A
C2116      H2121   1.084       .  S
C2117      C2118   1.424   1_545  A
C2118      C2119   1.499       .  S
C2119      H2123   1.111       .  S
C2119      H2124   1.106   1_655  S
C2119      H2125   1.110   1_655  S
C2122      H2126   1.110       .  S
C2122      H2127   1.109       .  S
C2122      H2128   1.110       .  S
C2129      C2130   1.400       .  A
C2129      C2134   1.405       .  A
C2129      H2136   1.085       .  S
C2130      C2131   1.396       .  A
C2131      C2132   1.393       .  A
C2131      C2138   1.503       .  S
C2132      C2133   1.414       .  A
C2132      H2137   1.083       .  S
C2133      C2134   1.422       .  A
C2134      C2135   1.505       .  S
C2135      H2139   1.111       .  S
C2135      H2140   1.109       .  S
C2135      H2141   1.110       .  S
C2138      H2142   1.110       .  S
C2138      H2143   1.111       .  S
C2138      H2144   1.110       .  S
C2145      C2146   1.404       .  A
C2145      C2150   1.420       .  A
C2145      H2152   1.084       .  S
C2146      C2147   1.424       .  A
C2147      C2148   1.417       .  A
C2147      C2154   1.508       .  S
C2148      C2149   1.405       .  A
C2148      H2153   1.084       .  S
C2149      C2150   1.426       .  A
C2150      C2151   1.506       .  S
C2151      H2155   1.111       .  S
C2151      H2156   1.109       .  S
C2151      H2157   1.110       .  S
C2154      H2158   1.110       .  S
C2154      H2159   1.107       .  S
C2154      H2160   1.111       .  S
C2161      C2162   1.409       .  A
C2161      C2166   1.401       .  A
C2161      H2168   1.082       .  S
C2162      C2163   1.405       .  A
C2163      C2164   1.400       .  A
C2163      C2170   1.506       .  S
C2164      C2165   1.413       .  A
C2164      H2169   1.084       .  S
C2165      C2166   1.413       .  A
C2166      C2167   1.507       .  S
C2167      H2171   1.110       .  S
C2167      H2172   1.108       .  S
C2167      H2173   1.104       .  S
C2170      H2174   1.110       .  S
C2170      H2175   1.110       .  S
C2170      H2176   1.111       .  S
C2177      C2178   1.407       .  A
C2177      C2182   1.417       .  A
C2177      H2184   1.084       .  S
C2178      C2179   1.425   1_565  A
C2179      C2180   1.435   1_545  A
C2179      C2186   1.504       .  S
C2180      C2181   1.416       .  A
C2180      H2185   1.083   1_565  S
C2181      C2182   1.425       .  A
C2182      C2183   1.505       .  S
C2183      H2187   1.110       .  S
C2183      H2188   1.106       .  S
C2183      H2189   1.110       .  S
C2186      H2190   1.110       .  S
C2186      H2191   1.110       .  S
C2186      H2192   1.111       .  S
C2193      C2194   1.412       .  A
C2193      C2198   1.396       .  A
C2193      H2200   1.083       .  S
C2194      C2195   1.410       .  A
C2195      C2196   1.410       .  A
C2195      C2202   1.500       .  S
C2196      C2197   1.410       .  A
C2196      H2201   1.080       .  S
C2197      C2198   1.398       .  A
C2198      C2199   1.501       .  S
C2199      H2203   1.110       .  S
C2199      H2204   1.111       .  S
C2199      H2205   1.111       .  S
C2202      H2206   1.109       .  S
C2202      H2207   1.110       .  S
C2202      H2208   1.104       .  S
C2209      C2210   1.407       .  A
C2209      C2214   1.413       .  A
C2209      H2216   1.084       .  S
C2210      C2211   1.406       .  A
C2211      C2212   1.402       .  A
C2211      C2218   1.507       .  S
C2212      C2213   1.411       .  A
C2212      H2217   1.084       .  S
C2213      C2214   1.412       .  A
C2214      C2215   1.503       .  S
C2215      H2219   1.111       .  S
C2215      H2220   1.110       .  S
C2215      H2221   1.110       .  S
C2218      H2222   1.111       .  S
C2218      H2223   1.110       .  S
C2218      H2224   1.111       .  S
C2225      C2226   1.406       .  A
C2225      C2230   1.409       .  A
C2225      H2232   1.084       .  S
C2226      C2227   1.420       .  A
C2227      C2228   1.413       .  A
C2227      C2234   1.505       .  S
C2228      C2229   1.403       .  A
C2228      H2233   1.084       .  S
C2229      C2230   1.414       .  A
C2230      C2231   1.507   1_565  S
C2231      H2235   1.111       .  S
C2231      H2236   1.110       .  S
C2231      H2237   1.110   1_545  S
C2234      H2238   1.110       .  S
C2234      H2239   1.108       .  S
C2234      H2240   1.111       .  S
C2241      C2242   1.414       .  A
C2241      C2246   1.406       .  A
C2241      H2248   1.084       .  S
C2242      C2243   1.405       .  A
C2243      C2244   1.404       .  A
C2243      C2250   1.507       .  S
C2244      C2245   1.419       .  A
C2244      H2249   1.079       .  S
C2245      C2246   1.412       .  A
C2246      C2247   1.507       .  S
C2247      H2251   1.111       .  S
C2247      H2252   1.110       .  S
C2247      H2253   1.110       .  S
C2250      H2254   1.105       .  S
C2250      H2255   1.110       .  S
C2250      H2256   1.111       .  S
C2257      C2258   1.413       .  A
C2257      C2262   1.423       .  A
C2257      H2264   1.084       .  S
C2258      C2259   1.416       .  A
C2259      C2260   1.420       .  A
C2259      C2266   1.504   1_655  S
C2260      C2261   1.411       .  A
C2260      H2265   1.084   1_655  S
C2261      C2262   1.418       .  A
C2262      C2263   1.506       .  S
C2263      H2267   1.111       .  S
C2263      H2268   1.110       .  S
C2263      H2269   1.111       .  S
C2266      H2270   1.110       .  S
C2266      H2271   1.110       .  S
C2266      H2272   1.111       .  S
C2273      C2274   1.406       .  A
C2273      C2278   1.401       .  A
C2273      H2280   1.084       .  S
C2274      C2275   1.405   1_655  A
C2275      C2276   1.396       .  A
C2275      C2282   1.506       .  S
C2276      C2277   1.412   1_455  A
C2276      H2281   1.084       .  S
C2277      C2278   1.417       .  A
C2278      C2279   1.511       .  S
C2279      H2283   1.109       .  S
C2279      H2284   1.110       .  S
C2279      H2285   1.106       .  S
C2282      H2286   1.111       .  S
C2282      H2287   1.109       .  S
C2282      H2288   1.111       .  S
C2289      C2290   1.404       .  A
C2289      C2294   1.404       .  A
C2289      H2296   1.085       .  S
C2290      C2291   1.400       .  A
C2291      C2292   1.388       .  A
C2291      C2298   1.509       .  S
C2292      C2293   1.411       .  A
C2292      H2297   1.078       .  S
C2293      C2294   1.415       .  A
C2294      C2295   1.504       .  S
C2295      H2299   1.111       .  S
C2295      H2300   1.110       .  S
C2295      H2301   1.110       .  S
C2298      H2302   1.109       .  S
C2298      H2303   1.110       .  S
C2298      H2304   1.110       .  S
C2305      C2306   1.415       .  A
C2305      C2310   1.411       .  A
C2305      H2312   1.084       .  S
C2306      C2307   1.406       .  A
C2307      C2308   1.400       .  A
C2307      C2314   1.504       .  S
C2308      C2309   1.420       .  A
C2308      H2313   1.082       .  S
C2309      C2310   1.413       .  A
C2310      C2311   1.505       .  S
C2311      H2315   1.111       .  S
C2311      H2316   1.110       .  S
C2311      H2317   1.110       .  S
C2314      H2318   1.110       .  S
C2314      H2319   1.105       .  S
C2314      H2320   1.110       .  S
C2321      C2322   1.406       .  A
C2321      C2326   1.402       .  A
C2321      H2328   1.085       .  S
C2322      C2323   1.409       .  A
C2323      C2324   1.398       .  A
C2323      C2330   1.506       .  S
C2324      C2325   1.402       .  A
C2324      H2329   1.085       .  S
C2325      C2326   1.409       .  A
C2326      C2327   1.504       .  S
C2327      H2331   1.110       .  S
C2327      H2332   1.108       .  S
C2327      H2333   1.110       .  S
C2330      H2334   1.110       .  S
C2330      H2335   1.108       .  S
C2330      H2336   1.111       .  S
C2337      C2338   1.413       .  A
C2337      C2342   1.417   1_565  A
C2337      H2344   1.084       .  S
C2338      C2339   1.424   1_655  A
C2339      C2340   1.443   1_565  A
C2339      C2346   1.502       .  S
C2340      C2341   1.426   1_455  A
C2340      H2345   1.083       .  S
C2341      C2342   1.429       .  A
C2342      C2343   1.507       .  S
C2343      H2347   1.111       .  S
C2343      H2348   1.106       .  S
C2343      H2349   1.110       .  S
C2346      H2350   1.111       .  S
C2346      H2351   1.110       .  S
C2346      H2352   1.111       .  S
C2353      C2354   1.401   1_565  A
C2353      C2358   1.392       .  A
C2353      H2360   1.083       .  S
C2354      C2355   1.406   1_545  A
C2355      C2356   1.396       .  A
C2355      C2362   1.507   1_565  S
C2356      C2357   1.403       .  A
C2356      H2361   1.084       .  S
C2357      C2358   1.409       .  A
C2358      C2359   1.512       .  S
C2359      H2363   1.110       .  S
C2359      H2364   1.105       .  S
C2359      H2365   1.106       .  S
C2362      H2366   1.107       .  S
C2362      H2367   1.107       .  S
C2362      H2368   1.110       .  S
C2369      C2370   1.401       .  A
C2369      C2374   1.399       .  A
C2369      H2376   1.084       .  S
C2370      C2371   1.416       .  A
C2371      C2372   1.393       .  A
C2371      C2378   1.510       .  S
C2372      C2373   1.393       .  A
C2372      H2377   1.084       .  S
C2373      C2374   1.411       .  A
C2374      C2375   1.508       .  S
C2375      H2379   1.111       .  S
C2375      H2380   1.109       .  S
C2375      H2381   1.110       .  S
C2378      H2382   1.109       .  S
C2378      H2383   1.106       .  S
C2378      H2384   1.111       .  S
C2385      C2386   1.404       .  A
C2385      C2390   1.402       .  A
C2385      H2392   1.085       .  S
C2386      C2387   1.403       .  A
C2387      C2388   1.401       .  A
C2387      C2394   1.507       .  S
C2388      C2389   1.415       .  A
C2388      H2393   1.083       .  S
C2389      C2390   1.420       .  A
C2390      C2391   1.508       .  S
C2391      H2395   1.109       .  S
C2391      H2396   1.108       .  S
C2391      H2397   1.109       .  S
C2394      H2398   1.111       .  S
C2394      H2399   1.110       .  S
C2394      H2400   1.111       .  S
C2401      C2402   1.406       .  A
C2401      C2406   1.411       .  A
C2401      H2408   1.084       .  S
C2402      C2403   1.418   1_455  A
C2403      C2404   1.413       .  A
C2403      C2410   1.506       .  S
C2404      C2405   1.406   1_655  A
C2404      H2409   1.084       .  S
C2405      C2406   1.415       .  A
C2406      C2407   1.506       .  S
C2407      H2411   1.111       .  S
C2407      H2412   1.108       .  S
C2407      H2413   1.110       .  S
C2410      H2414   1.111   1_655  S
C2410      H2415   1.109       .  S
C2410      H2416   1.111       .  S
C2417      C2418   1.398       .  A
C2417      C2422   1.409       .  A
C2417      H2424   1.084       .  S
C2418      C2419   1.429       .  A
C2419      C2420   1.413       .  A
C2419      C2426   1.506       .  S
C2420      C2421   1.397       .  A
C2420      H2425   1.084       .  S
C2421      C2422   1.421       .  A
C2422      C2423   1.496       .  S
C2423      H2427   1.108       .  S
C2423      H2428   1.105       .  S
C2423      H2429   1.104       .  S
C2426      H2430   1.110       .  S
C2426      H2431   1.108       .  S
C2426      H2432   1.111       .  S
C2433      C2434   1.402       .  A
C2433      C2438   1.399       .  A
C2433      H2440   1.084       .  S
C2434      C2435   1.416       .  A
C2435      C2436   1.397       .  A
C2435      C2442   1.507       .  S
C2436      C2437   1.398       .  A
C2436      H2441   1.082       .  S
C2437      C2438   1.412       .  A
C2438      C2439   1.507       .  S
C2439      H2443   1.111       .  S
C2439      H2444   1.110       .  S
C2439      H2445   1.106       .  S
C2442      H2446   1.107       .  S
C2442      H2447   1.110       .  S
C2442      H2448   1.110       .  S
C2449      C2450   1.405       .  A
C2449      C2454   1.402       .  A
C2449      H2456   1.084       .  S
C2450      C2451   1.404       .  A
C2451      C2452   1.395       .  A
C2451      C2458   1.507       .  S
C2452      C2453   1.404       .  A
C2452      H2457   1.083       .  S
C2453      C2454   1.410       .  A
C2454      C2455   1.507       .  S
C2455      H2459   1.110       .  S
C2455      H2460   1.107       .  S
C2455      H2461   1.111       .  S
C2458      H2462   1.110       .  S
C2458      H2463   1.110       .  S
C2458      H2464   1.111       .  S
C2465      C2466   1.415       .  A
C2465      C2470   1.422       .  A
C2465      H2472   1.083   1_554  S
C2466      C2467   1.430       .  A
C2467      C2468   1.408   1_565  A
C2467      C5082   1.508       .  S
C2468      C2469   1.401       .  A
C2468      H5081   1.085       .  S
C2469      C2470   1.415   1_545  A
C2470      C2471   1.506   1_564  S
C2471      H2475   1.110   1_545  S
C2471      H2476   1.110       .  S
C2471      H2477   1.110       .  S
H2473      C5076   1.084   1_545  S
C2474      C5075   1.508       .  S
C2474      H2479   1.111       .  S
C2474      H2480   1.111       .  S
C2474      H5086   1.108       .  S
H2478      C5082   1.108       .  S
C2481      C2482   1.404       .  A
C2481      C2486   1.405       .  A
C2481      H2488   1.084       .  S
C2482      C2483   1.407       .  A
C2483      C2484   1.400       .  A
C2483      C2490   1.508       .  S
C2484      C2485   1.409       .  A
C2484      H2489   1.084       .  S
C2485      C2486   1.413       .  A
C2486      C2487   1.507       .  S
C2487      H2491   1.111       .  S
C2487      H2492   1.110       .  S
C2487      H2493   1.108       .  S
C2490      H2494   1.108       .  S
C2490      H2495   1.110       .  S
C2490      H2496   1.111       .  S
C2497      C2498   1.404       .  A
C2497      C2502   1.398       .  A
C2497      H2504   1.084       .  S
C2498      C2698   1.479       .  S
C2498      C5107   1.417       .  A
C2499      C5106   1.417       .  A
C2499      C5108   1.399       .  A
C2499      C2506   1.507       .  S
C2500      C2501   1.402       .  A
C2500      C5107   1.401       .  A
C2500      H2505   1.085       .  S
C2501      C2502   1.415       .  A
C2502      C2503   1.508       .  S
C2503      H2507   1.111       .  S
C2503      H2508   1.107       .  S
C2503      H2509   1.109       .  S
C2506      H2510   1.111       .  S
C2506      H2511   1.109       .  S
C2506      H2512   1.110       .  S
C2513      C2514   1.404       .  A
C2513      C2518   1.421       .  A
C2513      H2520   1.084       .  S
C2514      C2515   1.426       .  A
C2515      C2516   1.427       .  A
C2515      C2522   1.506       .  S
C2516      C2517   1.414       .  A
C2516      H2521   1.084       .  S
C2517      C2518   1.437       .  A
C2518      C2519   1.510       .  S
C2519      H2523   1.111       .  S
C2519      H2524   1.108       .  S
C2519      H2525   1.105       .  S
C2522      H2526   1.110       .  S
C2522      H2527   1.104       .  S
C2522      H2528   1.110       .  S
C2529      C2530   1.394       .  A
C2529      C5142   1.385       .  A
C2529      H2536   1.084       .  S
C2530      C2531   1.415       .  A
C2531      C5140   1.396       .  A
C2531      C2538   1.501       .  S
C2532      C2533   1.406       .  A
C2532      C5139   1.399       .  A
C2532      H2537   1.084       .  S
C2533      C2534   1.429       .  A
C2534      C5137   1.391       .  A
C2534      C2535   1.508       .  S
C2535      H2539   1.108       .  S
C2535      H2540   1.097       .  S
C2535      H2541   1.111       .  S
C2538      H2542   1.110       .  S
C2538      H2543   1.110       .  S
C2538      H2544   1.108       .  S
C2545      C2546   1.409       .  A
C2545      C2550   1.406       .  A
C2545      H2552   1.084       .  S
C2546      C3952   1.464       .  S
C2546      C2547   1.405       .  A
C2547      C2548   1.384       .  A
C2547      C5162   1.510       .  S
C2548      C2549   1.394       .  A
C2548      H2553   1.062       .  S
C2549      C2550   1.409       .  A
C2550      C2551   1.506       .  S
C2551      H2555   1.111       .  S
C2551      H2556   1.111       .  S
C2551      H2557   1.110       .  S
C2554      C5155   1.505       .  S
C2554      H2558   1.108       .  S
C2554      H2559   1.110       .  S
C2554      H5168   1.098       .  S
H2560      C5162   1.110       .  S
C2561      C2562   1.407       .  A
C2561      C2566   1.404       .  A
C2561      H2568   1.084       .  S
C2562      C2563   1.417       .  A
C2563      C2564   1.397       .  A
C2563      C2570   1.508       .  S
C2564      C2565   1.401       .  A
C2564      H2569   1.085       .  S
C2565      C2566   1.409       .  A
C2566      C2567   1.506       .  S
C2567      H2571   1.111       .  S
C2567      H2572   1.110       .  S
C2567      H2573   1.106       .  S
C2570      H2574   1.108       .  S
C2570      H2575   1.110       .  S
C2570      H2576   1.111       .  S
C2577      C2578   1.404       .  A
C2577      C2582   1.409       .  A
C2577      H2584   1.084       .  S
C2578      C2579   1.421       .  A
C2579      C2580   1.409   1_554  A
C2579      C2586   1.505   1_554  S
C2580      C2581   1.403   1_556  A
C2580      H2585   1.084       .  S
C2581      C2582   1.420       .  A
C2582      C2583   1.507       .  S
C2583      H2587   1.111       .  S
C2583      H2588   1.109       .  S
C2583      H2589   1.109       .  S
C2586      H2590   1.110       .  S
C2586      H2591   1.109       .  S
C2586      H2592   1.111       .  S
C2593      C2594   1.401       .  A
C2593      C2598   1.410   1_554  A
C2593      H2600   1.084       .  S
C2594      C2595   1.416       .  A
C2595      C2596   1.401   1_554  A
C2595      C2602   1.506       .  S
C2596      C2597   1.402       .  A
C2596      H2601   1.085       .  S
C2597      C2895   1.491       .  S
C2597      C2598   1.424       .  A
C2598      C5207   1.508       .  S
C2599      C5206   1.508       .  S
C2599      H2603   1.110       .  S
C2599      H2605   1.110       .  S
C2599      H5212   1.110       .  S
C2602      H2606   1.105       .  S
C2602      H2607   1.110   1_554  S
C2602      H2608   1.111       .  S
H2604      C5207   1.110       .  S
Zr2609     O2610   2.440       .  S
Zr2609     O2611   2.484       .  S
Zr2609     O2612   2.448       .  S
Zr2609     O2615   2.417       .  S
Zr2609     O2617   2.366       .  S
Zr2609     O2618   2.388       .  S
Zr2609     O2619   2.414       .  S
Zr2609     O2620   2.431       .  S
O2610      H2666   0.990       .  S
O2610      H2674   0.990       .  S
O2611      C2631   1.292       .  A
O2612      C2633   1.286       .  A
O2613     Zr2623   2.411       .  S
O2613      C2632   1.274       .  A
O2614     Zr2622   2.457       .  S
O2614      C2633   1.287       .  A
O2615      C2632   1.274       .  A
O2616     Zr2624   2.396       .  S
O2616      C2631   1.277       .  A
O2617     Zr2622   2.381       .  S
O2617     Zr2624   2.384       .  S
O2618     Zr2623   2.418       .  S
O2618     Zr2624   2.364       .  S
O2618      H2653   0.964       .  S
O2619     Zr2622   2.392       .  S
O2619     Zr2639   2.434       .  S
O2619      H2656   0.965       .  S
O2620     Zr2623   2.412       .  S
O2620     Zr2639   2.421       .  S
Zr2621     O2646   2.437       .  S
Zr2621     O2640   2.451       .  S
Zr2621     O2648   2.431       .  S
Zr2621     O2636   2.422       .  S
Zr2621     O2627   2.403       .  S
Zr2621     O2628   2.408       .  S
Zr2621     O2629   2.384       .  S
Zr2621     O2630   2.379       .  S
Zr2622     O2641   2.436       .  S
Zr2622     O2634   2.435       .  S
Zr2622     O2635   2.406       .  S
Zr2622     O2628   2.404       .  S
Zr2622     O2629   2.414       .  S
Zr2623     O2625   2.435       .  S
Zr2623     O2647   2.439       .  S
Zr2623     O2649   2.433       .  S
Zr2623     O2627   2.408       .  S
Zr2623     O2630   2.396       .  S
Zr2624     O2650   2.436       .  S
Zr2624     O2651   2.434       .  S
Zr2624     O2626   2.438       .  S
Zr2624     O2627   2.395       .  S
Zr2624     O2628   2.370       .  S
O2625      H2662   0.990       .  S
O2626      H2671   0.991       .  S
O2628      H2654   0.967       .  S
O2629     Zr2639   2.370       .  S
O2630     Zr2639   2.354       .  S
O2630      H2655   0.964       .  S
C2631      C5202   1.484       .  S
C2632      C5173   1.473       .  S
C2633      C5186   1.508       .  S
O2634      H2670   0.990       .  S
O2635      C2637   1.281       .  A
O2636      C2637   1.285       .  A
C2637      C5138   1.469       .  S
O2638     Zr2639   2.436       .  S
O2638      H2667   0.990       .  S
Zr2639     O2642   2.432       .  S
Zr2639     O2643   2.439       .  S
Zr2639     O2644   2.503       .  S
O2640      C2645   1.286       .  A
O2641      H2658   0.990       .  S
O2641      H2673   0.990       .  S
O2642      H2659   0.989       .  S
O2643      H2663   0.990       .  S
O2643      H2672   0.989       .  S
O2644      C2645   1.295       .  A
C2645      C5122   1.518       .  S
O2646      H2665   0.988       .  S
O2646      H2669   0.990       .  S
O2647      H2661   0.991       .  S
O2647      H2668   0.990       .  S
O2648      C2652   1.281       .  A
O2649      C2652   1.277       .  A
O2650      H2660   0.990       .  S
C2652      C5157   1.468       .  S
Zr2675     O2677   2.462       .  S
Zr2675     O2678   2.438       .  S
Zr2675     O2681   2.388       .  S
Zr2675     O2683   2.369       .  S
Zr2675     O2684   2.397       .  S
Zr2675     O2685   2.418       .  S
Zr2675     O2686   2.427       .  S
O2676      H2732   0.991       .  S
O2676      H2740   0.989       .  S
O2677      C2697   1.285       .  A
O2678      C2699   1.285       .  A
O2679     Zr2689   2.448       .  S
O2679      C2698   1.286       .  A
O2680     Zr2688   2.492       .  S
O2680      C2699   1.295       .  A
O2681      C2698   1.276       .  A
O2682     Zr2690   2.414       .  S
O2682      C2697   1.274       .  A
O2683     Zr2688   2.367       .  S
O2683     Zr2690   2.356       .  S
O2684     Zr2689   2.363       .  S
O2684     Zr2690   2.382       .  S
O2684      H2719   0.964       .  S
O2685     Zr2688   2.392       .  S
O2685     Zr2705   2.450       .  S
O2685      H2722   0.970       .  S
O2686     Zr2689   2.387       .  S
O2686     Zr2705   2.431       .  S
Zr2687     O2712   2.442       .  S
Zr2687     O2706   2.458       .  S
Zr2687     O2714   2.439       .  S
Zr2687     O2702   2.453       .  S
Zr2687     O2693   2.379       .  S
Zr2687     O2694   2.425       .  S
Zr2687     O2695   2.380       .  S
Zr2687     O2696   2.393       .  S
Zr2688     O2707   2.436       .  S
Zr2688     O2700   2.439       .  S
Zr2688     O2701   2.418       .  S
Zr2688     O2694   2.418       .  S
Zr2688     O2695   2.420       .  S
Zr2689     O2713   2.439       .  S
Zr2689     O2715   2.418       .  S
Zr2689     O2693   2.382       .  S
Zr2689     O2696   2.382       .  S
Zr2690     O2716   2.434       .  S
Zr2690     O2717   2.434       .  S
Zr2690     O2692   2.438       .  S
Zr2690     O2693   2.357       .  S
Zr2690     O2694   2.384       .  S
O2691      H2728   0.990       .  S
O2692      H2723   0.990       .  S
O2692      H2737   0.990       .  S
O2694      H2720   0.964       .  S
O2695     Zr2705   2.384       .  S
O2696     Zr2705   2.377       .  S
O2696      H2721   0.963       .  S
C2697      C5090   1.474       .  S
C2699      C5189   1.505       .  S
O2700      H2736   0.991       .  S
O2701      C2703   1.280       .  A
O2702      C2703   1.287       .  A
C2703      C5042   1.473       .  S
O2704      H2733   0.990       .  S
Zr2705     O2710   2.509       .  S
O2706      C2711   1.286       .  A
O2707      H2724   0.991       .  S
O2707      H2739   0.989       .  S
O2708      H2725   0.991   1_556  S
O2709      H2729   0.992       .  S
O2709      H2738   0.989       .  S
O2710      C2711   1.297       .  A
C2711      C5074   1.538       .  S
O2712      H2731   0.991       .  S
O2712      H2735   0.989       .  S
O2713      H2727   0.989       .  S
O2713      H2734   0.992       .  S
O2714      C2718   1.288       .  A
O2715      C2718   1.280       .  A
O2716      H2726   0.991       .  S
O2717      H2730   0.991       .  S
C2718      C5061   1.460       .  S
Zr2741     O2742   2.440       .  S
Zr2741     O2743   2.498       .  S
Zr2741     O2744   2.451       .  S
Zr2741     O2747   2.393       .  S
Zr2741     O2749   2.367       .  S
Zr2741     O2750   2.374       .  S
Zr2741     O2751   2.434       .  S
Zr2741     O2752   2.436       .  S
O2742      H2798   0.992       .  S
O2742      H2806   0.989       .  S
O2743      C2763   1.298       .  A
O2744      C2765   1.287       .  A
O2745     Zr2755   2.433       .  S
O2745      C2764   1.282       .  A
O2746     Zr2754   2.459       .  S
O2746      C2765   1.287   1_655  A
O2747      C2764   1.279       .  A
O2748     Zr2756   2.424       .  S
O2748      C2763   1.282       .  A
O2749     Zr2754   2.385   1_455  S
O2749     Zr2756   2.376       .  S
O2750     Zr2755   2.361       .  S
O2750     Zr2756   2.390       .  S
O2750      H2785   0.961       .  S
O2751     Zr2754   2.413   1_455  S
O2751     Zr2771   2.481       .  S
O2751      H2788   0.967       .  S
O2752     Zr2755   2.391       .  S
O2752     Zr2771   2.440       .  S
Zr2753     O2778   2.429   1_455  S
Zr2753     O2772   2.382       .  S
Zr2753     O2780   2.405       .  S
Zr2753     O2768   2.417   1_455  S
Zr2753     O2759   2.397       .  S
Zr2753     O2760   2.422       .  S
Zr2753     O2761   2.367       .  S
Zr2753     O2762   2.392       .  S
Zr2754     O2773   2.435       .  S
Zr2754     O2766   2.434       .  S
Zr2754     O2767   2.429       .  S
Zr2754     O2760   2.437   1_655  S
Zr2754     O2761   2.421   1_655  S
Zr2755     O2757   2.433       .  S
Zr2755     O2779   2.437       .  S
Zr2755     O2781   2.390       .  S
Zr2755     O2759   2.424       .  S
Zr2755     O2762   2.420       .  S
Zr2756     O2782   2.435       .  S
Zr2756     O2783   2.436       .  S
Zr2756     O2758   2.438       .  S
Zr2756     O2759   2.385       .  S
Zr2756     O2760   2.402       .  S
O2757      H2794   0.991       .  S
O2758      H2789   0.990       .  S
O2758      H2803   0.990       .  S
O2760      H2786   1.023   1_455  S
O2761     Zr2771   2.323       .  S
O2762     Zr2771   2.347       .  S
O2762      H2787   0.966       .  S
C2763      C5026   1.505       .  S
C2764      C4994   1.467       .  S
C2765      C5010   1.498       .  S
O2766      H2802   0.991       .  S
O2767      C2769   1.267       .  A
O2768      C2769   1.268       .  A
C2769      C4981   1.456       .  S
O2770     Zr2771   2.435       .  S
O2770      H2799   0.990       .  S
Zr2771     O2774   2.436       .  S
Zr2771     O2775   2.435       .  S
Zr2771     O2776   2.592       .  S
O2772      C2777   1.278       .  A
O2773      H2790   0.990       .  S
O2773      H2805   0.990       .  S
O2774      H2791   0.991   1_455  S
O2775      H2795   0.990       .  S
O2775      H2804   0.990       .  S
O2776      C2777   1.315       .  A
C2777      C4946   1.541       .  S
O2778      H2797   0.991       .  S
O2778      H2801   0.988       .  S
O2779      H2793   0.990       .  S
O2779      H2800   0.990       .  S
O2780      C2784   1.270       .  A
O2781      C2784   1.266       .  A
O2782      H2792   0.990       .  S
O2783      H2796   0.991       .  S
C2784      C4965   1.456       .  S
Zr2807     O2808   2.439       .  S
Zr2807     O2809   2.474       .  S
Zr2807     O2810   2.403       .  S
Zr2807     O2813   2.381       .  S
Zr2807     O2815   2.364       .  S
Zr2807     O2816   2.386       .  S
Zr2807     O2817   2.417       .  S
Zr2807     O2818   2.425       .  S
O2808      H2864   0.990       .  S
O2808      H2872   0.991       .  S
O2809      C2829   1.287       .  A
O2810      C2831   1.278       .  A
O2811     Zr2821   2.452       .  S
O2811      C2830   1.285       .  A
O2812     Zr2820   2.498   1_655  S
O2812      C2831   1.295   1_655  A
O2813      C2830   1.274       .  A
O2814     Zr2822   2.388       .  S
O2814      C2829   1.270       .  A
O2815     Zr2820   2.361       .  S
O2815     Zr2822   2.368       .  S
O2816     Zr2821   2.395       .  S
O2816     Zr2822   2.373       .  S
O2816      H2851   0.965       .  S
O2817     Zr2820   2.392       .  S
O2817     Zr2837   2.442       .  S
O2817      H2854   0.966       .  S
O2818     Zr2821   2.383       .  S
O2818     Zr2837   2.437       .  S
Zr2819     O2844   2.444       .  S
Zr2819     O2838   2.437       .  S
Zr2819     O2846   2.453       .  S
Zr2819     O2834   2.421       .  S
Zr2819     O2825   2.373       .  S
Zr2819     O2826   2.442       .  S
Zr2819     O2827   2.396       .  S
Zr2819     O2828   2.394       .  S
Zr2820     O2839   2.437   1_455  S
Zr2820     O2832   2.436   1_455  S
Zr2820     O2833   2.422   1_455  S
Zr2820     O2826   2.424       .  S
Zr2820     O2827   2.427       .  S
Zr2821     O2823   2.435       .  S
Zr2821     O2845   2.444       .  S
Zr2821     O2847   2.418       .  S
Zr2821     O2825   2.387       .  S
Zr2821     O2828   2.414       .  S
Zr2822     O2848   2.438       .  S
Zr2822     O2849   2.436       .  S
Zr2822     O2824   2.438       .  S
Zr2822     O2825   2.363       .  S
Zr2822     O2826   2.358       .  S
O2823      H2860   0.991       .  S
O2824      H2855   0.990       .  S
O2824      H2869   0.990       .  S
O2826      H2852   0.964       .  S
O2827     Zr2837   2.366       .  S
O2828     Zr2837   2.386       .  S
O2828      H2853   0.967       .  S
C2829      C4914   1.488       .  S
C2830      C4930   1.453       .  S
C2831      C5013   1.492       .  S
O2832      H2868   0.990   1_655  S
O2833      C2835   1.274       .  A
O2834      C2835   1.279   1_455  A
C2835      C4885   1.480       .  S
O2836     Zr2837   2.435       .  S
O2836      H2865   0.990       .  S
Zr2837     O2840   2.436   1_455  S
Zr2837     O2841   2.438       .  S
Zr2837     O2842   2.509   1_455  S
O2838      C2843   1.282       .  A
O2839      H2856   0.989       .  S
O2839      H2871   0.990       .  S
O2840      H2857   0.990       .  S
O2841      H2861   0.989       .  S
O2841      H2870   0.991       .  S
O2842      C2843   1.297   1_655  A
C2843      C4869   1.518   1_455  S
O2844      H2863   0.990       .  S
O2844      H2867   0.992       .  S
O2845      H2859   0.989       .  S
O2845      H2866   0.991       .  S
O2846      C2850   1.286       .  A
O2847      C2850   1.278       .  A
O2848      H2858   0.990       .  S
O2849      H2862   0.990       .  S
C2850      C4898   1.454       .  S
Zr2873     O2879   2.420       .  S
Zr2873     O2881   2.366       .  S
Zr2873     O2882   2.391       .  S
Zr2873     O2883   2.404       .  S
Zr2873     O2884   2.381       .  S
O2874      H2930   0.990       .  S
O2874      H2938   0.990       .  S
O2876      C2897   1.285       .  A
O2877     Zr2887   2.437       .  S
O2877      C2896   1.285       .  A
O2878      C2897   1.283       .  A
O2879      C2896   1.283       .  A
O2880     Zr2888   2.457       .  S
O2880      C2895   1.289       .  A
O2881     Zr2886   2.399       .  S
O2881     Zr2888   2.361       .  S
O2882     Zr2887   2.407       .  S
O2882     Zr2888   2.380       .  S
O2882      H2917   0.966       .  S
O2883     Zr2886   2.406       .  S
O2883     Zr2903   2.401       .  S
O2884     Zr2887   2.397       .  S
O2884     Zr2903   2.363       .  S
Zr2885     O2910   2.439       .  S
Zr2885     O2904   2.440       .  S
Zr2885     O2912   2.381       .  S
Zr2885     O2900   2.390       .  S
Zr2885     O2891   2.399       .  S
Zr2885     O2892   2.405       .  S
Zr2885     O2893   2.373       .  S
Zr2885     O2894   2.364       .  S
Zr2886     O2905   2.435       .  S
Zr2886     O2898   2.434       .  S
Zr2886     O2899   2.474       .  S
Zr2886     O2892   2.398       .  S
Zr2886     O2893   2.382       .  S
Zr2887     O2889   2.435       .  S
Zr2887     O2911   2.434       .  S
Zr2887     O2913   2.494       .  S
Zr2887     O2891   2.385       .  S
Zr2887     O2894   2.372       .  S
Zr2888     O2914   2.434       .  S
Zr2888     O2915   2.436       .  S
Zr2888     O2890   2.439       .  S
Zr2888     O2891   2.419       .  S
Zr2888     O2892   2.417       .  S
O2889      H2926   0.990       .  S
O2890      H2921   0.990       .  S
O2890      H2935   0.990       .  S
O2892      H2918   0.968       .  S
O2893     Zr2903   2.370       .  S
O2894     Zr2903   2.384       .  S
O2894      H2919   0.966       .  S
C2896      C5109   1.466       .  S
C2897      C2963   1.469       .  S
O2898      H2934   0.988       .  S
O2899      C2901   1.293       .  A
O2900      C2901   1.278       .  A
C2901      C4917   1.486       .  S
O2902     Zr2903   2.435       .  S
O2902      H2931   0.990       .  S
Zr2903     O2906   2.435       .  S
Zr2903     O2907   2.438       .  S
Zr2903     O2908   2.402       .  S
O2904      C2909   1.285       .  A
O2906      H2923   0.990       .  S
O2907      H2927   0.990       .  S
O2907      H2936   0.991       .  S
O2908      C2909   1.280       .  A
C2909      C4997   1.490       .  S
O2910      H2929   0.992       .  S
O2910      H2933   0.989       .  S
O2911      H2925   0.989       .  S
O2911      H2932   0.990       .  S
O2912      C2916   1.276       .  A
O2913      C2916   1.294       .  A
O2914      H2924   0.989       .  S
O2915      H2928   0.990       .  S
C2916      C2982   1.480       .  S
Zr2939     O2940   2.439       .  S
Zr2939     O2941   2.386       .  S
Zr2939     O2942   2.410       .  S
Zr2939     O2945   2.431       .  S
Zr2939     O2947   2.376       .  S
Zr2939     O2948   2.390       .  S
Zr2939     O2949   2.399       .  S
Zr2939     O2950   2.380       .  S
O2940      H2996   0.991       .  S
O2940      H3004   0.990       .  S
O2941      C2961   1.276       .  A
O2942      C2963   1.281       .  A
O2943     Zr2953   2.393       .  S
O2943      C2962   1.277       .  A
O2944     Zr2952   2.462       .  S
O2944      C2963   1.290       .  A
O2945      C2962   1.287       .  A
O2946     Zr2954   2.482       .  S
O2946      C2961   1.293       .  A
O2947     Zr2952   2.401       .  S
O2947     Zr2954   2.357       .  S
O2948     Zr2953   2.387       .  S
O2948     Zr2954   2.370       .  S
O2948      H2983   0.966       .  S
O2949     Zr2952   2.413       .  S
O2949     Zr2969   2.385       .  S
O2949      H2986   0.965       .  S
O2950     Zr2953   2.397       .  S
O2950     Zr2969   2.353       .  S
Zr2951     O2976   2.440       .  S
Zr2951     O2970   2.438       .  S
Zr2951     O2978   2.422       .  S
Zr2951     O2966   2.394       .  S
Zr2951     O2957   2.403       .  S
Zr2951     O2958   2.414       .  S
Zr2951     O2959   2.385       .  S
Zr2951     O2960   2.374       .  S
Zr2952     O2971   2.436       .  S
Zr2952     O2964   2.436       .  S
Zr2952     O2965   2.501       .  S
Zr2952     O2958   2.402       .  S
Zr2952     O2959   2.381       .  S
Zr2953     O2955   2.436       .  S
Zr2953     O2977   2.434       .  S
Zr2953     O2979   2.457       .  S
Zr2953     O2957   2.383       .  S
Zr2953     O2960   2.368       .  S
Zr2954     O2980   2.435       .  S
Zr2954     O2981   2.435       .  S
Zr2954     O2956   2.437       .  S
Zr2954     O2957   2.419       .  S
Zr2954     O2958   2.427       .  S
O2955      H2992   0.990       .  S
O2956      H2987   0.990       .  S
O2956      H3001   0.990       .  S
O2958      H2984   0.968       .  S
O2959     Zr2969   2.379       .  S
O2960     Zr2969   2.400       .  S
O2960      H2985   0.966       .  S
C2961      C5093   1.492       .  S
C2962      C5170   1.459       .  S
O2964      H3000   0.991       .  S
O2965      C2967   1.298       .  A
O2966      C2967   1.278       .  A
C2967      C5029   1.495       .  S
O2968     Zr2969   2.437       .  S
O2968      H2997   0.991       .  S
Zr2969     O2972   2.436       .  S
Zr2969     O2973   2.440       .  S
Zr2969     O2974   2.384       .  S
O2970      C2975   1.281       .  A
O2971      H2988   0.990       .  S
O2971      H3003   0.990       .  S
O2972      H2989   0.991       .  S
O2973      H2993   0.990       .  S
O2973      H3002   0.990       .  S
O2974      C2975   1.268       .  A
C2975      C4933   1.459       .  S
O2976      H2995   0.990       .  S
O2976      H2999   0.990       .  S
O2977      H2991   0.989       .  S
O2977      H2998   0.990       .  S
O2978      C2982   1.285       .  A
O2979      C2982   1.285       .  A
O2980      H2990   0.990       .  S
O2981      H2994   0.990       .  S
Zr3005     O3006   2.440       .  S
Zr3005     O3007   2.450       .  S
Zr3005     O3008   2.420       .  S
Zr3005     O3011   2.481       .  S
Zr3005     O3013   2.386       .  S
Zr3005     O3014   2.396       .  S
Zr3005     O3015   2.424       .  S
Zr3005     O3016   2.273       .  S
O3006      H3062   0.990       .  S
O3006      H3070   0.990       .  S
O3007      C3027   1.285       .  A
O3008      C3029   1.284       .  A
O3009     Zr3019   2.406       .  S
O3009      C3028   1.279       .  A
O3010     Zr3018   2.423       .  S
O3010      C3029   1.278       .  A
O3011      C3028   1.290       .  A
O3012     Zr3020   2.525       .  S
O3012      C3027   1.299       .  A
O3013     Zr3018   2.411       .  S
O3013     Zr3020   2.372       .  S
O3014     Zr3019   2.418       .  S
O3014     Zr3020   2.384       .  S
O3014      H3049   0.968       .  S
O3015     Zr3018   2.422       .  S
O3015     Zr3035   2.361       .  S
O3015      H3052   0.966       .  S
O3016     Zr3019   2.294       .  S
O3016     Zr3035   2.278       .  S
Zr3017     O3042   2.439       .  S
Zr3017     O3036   2.507       .  S
Zr3017     O3044   2.397       .  S
Zr3017     O3032   2.410       .  S
Zr3017     O3023   2.439       .  S
Zr3017     O3024   2.440       .  S
Zr3017     O3025   2.378       .  S
Zr3017     O3026   2.368       .  S
Zr3018     O3037   2.446       .  S
Zr3018     O3030   2.437       .  S
Zr3018     O3031   2.474       .  S
Zr3018     O3024   2.395       .  S
Zr3018     O3025   2.383       .  S
Zr3019     O3021   2.440   1_565  S
Zr3019     O3043   2.436   1_565  S
Zr3019     O3045   2.497       .  S
Zr3019     O3023   2.377       .  S
Zr3019     O3026   2.372       .  S
Zr3020     O3046   2.435   1_565  S
Zr3020     O3047   2.438       .  S
Zr3020     O3022   2.440       .  S
Zr3020     O3023   2.456       .  S
Zr3020     O3024   2.455       .  S
O3021      H3058   0.991   1_545  S
O3022      H3053   0.991       .  S
O3022      H3067   0.989       .  S
O3024      H3050   0.968       .  S
O3025     Zr3035   2.366       .  S
O3026     Zr3035   2.368       .  S
O3026      H3051   0.959       .  S
C3027      C4789   1.538       .  S
C3028      C4802   1.477       .  S
C3029      C5045   1.455       .  S
O3030      H3066   0.990       .  S
O3031      C3033   1.290       .  A
O3032      C3033   1.279       .  A
C3033      C4818   1.474       .  S
O3034     Zr3035   2.436       .  S
O3034      H3063   0.990       .  S
Zr3035     O3038   2.443       .  S
Zr3035     O3039   2.434       .  S
Zr3035     O3040   2.370       .  S
O3036      C3041   1.297       .  A
O3037      H3054   0.991       .  S
O3037      H3069   0.990       .  S
O3038      H3055   0.990       .  S
O3039      H3059   0.991       .  S
O3039      H3068   0.990       .  S
O3040      C3041   1.273       .  A
C3041      C4850   1.495       .  S
O3042      H3061   0.991       .  S
O3042      H3065   0.989       .  S
O3043      H3057   0.989       .  S
O3043      H3064   0.991       .  S
O3044      C3048   1.277       .  A
O3045      C3048   1.293       .  A
O3046      H3056   0.991       .  S
O3047      H3060   0.990       .  S
C3048      C4834   1.487       .  S
Zr3071     O3072   2.438   1_565  S
Zr3071     O3073   2.433   1_565  S
Zr3071     O3074   2.442       .  S
Zr3071     O3077   2.424   1_565  S
Zr3071     O3079   2.391       .  S
Zr3071     O3080   2.389       .  S
Zr3071     O3081   2.438       .  S
Zr3071     O3082   2.414   1_565  S
O3072      H3128   0.991       .  S
O3072      H3136   0.989       .  S
O3073      C3093   1.284   1_545  A
O3074      C3095   1.273       .  A
O3075     Zr3085   2.381       .  S
O3075      C3094   1.273       .  A
O3076     Zr3084   2.402       .  S
O3076      C3095   1.266       .  A
O3077      C3094   1.289       .  A
O3078     Zr3086   2.546       .  S
O3078      C3093   1.304       .  A
O3079     Zr3084   2.386       .  S
O3079     Zr3086   2.314       .  S
O3080     Zr3085   2.405   1_565  S
O3080     Zr3086   2.371       .  S
O3080      H3115   0.965   1_565  S
O3081     Zr3084   2.420       .  S
O3081     Zr3101   2.397       .  S
O3081      H3118   0.968       .  S
O3082     Zr3085   2.414       .  S
O3082     Zr3101   2.407   1_545  S
Zr3083     O3108   2.439       .  S
Zr3083     O3102   2.505       .  S
Zr3083     O3110   2.455       .  S
Zr3083     O3098   2.375       .  S
Zr3083     O3089   2.418       .  S
Zr3083     O3090   2.434       .  S
Zr3083     O3091   2.357       .  S
Zr3083     O3092   2.372       .  S
Zr3084     O3103   2.438       .  S
Zr3084     O3096   2.432       .  S
Zr3084     O3097   2.444       .  S
Zr3084     O3090   2.395       .  S
Zr3084     O3091   2.354       .  S
Zr3085     O3087   2.438       .  S
Zr3085     O3109   2.434       .  S
Zr3085     O3111   2.438   1_545  S
Zr3085     O3089   2.371   1_545  S
Zr3085     O3092   2.393   1_545  S
Zr3086     O3112   2.435       .  S
Zr3086     O3113   2.432       .  S
Zr3086     O3088   2.438       .  S
Zr3086     O3089   2.441       .  S
Zr3086     O3090   2.448       .  S
O3087      H3124   0.992       .  S
O3088      H3119   0.990       .  S
O3088      H3133   0.989       .  S
O3090      H3116   0.965       .  S
O3091     Zr3101   2.353       .  S
O3092     Zr3101   2.378       .  S
O3092      H3117   0.965       .  S
C3093      C4722   1.534   1_565  S
C3094      C4738   1.457       .  S
C3095      C4978   1.463       .  S
O3096      H3132   0.990       .  S
O3097      C3099   1.284       .  A
O3098      C3099   1.277       .  A
C3099      C4770   1.465       .  S
O3100     Zr3101   2.437   1_545  S
O3100      H3129   0.990       .  S
Zr3101     O3104   2.437       .  S
Zr3101     O3105   2.440       .  S
Zr3101     O3106   2.452       .  S
O3102      C3107   1.299       .  A
O3103      H3120   0.990       .  S
O3103      H3135   0.990       .  S
O3104      H3121   0.990       .  S
O3105      H3125   0.990   1_565  S
O3105      H3134   0.990       .  S
O3106      C3107   1.287       .  A
C3107      C4757   1.515       .  S
O3108      H3127   0.991       .  S
O3108      H3131   0.990       .  S
O3109      H3123   0.990       .  S
O3109      H3130   0.990       .  S
O3110      C3114   1.288       .  A
O3111      C3114   1.283       .  A
O3112      H3122   0.990       .  S
O3113      H3126   0.991       .  S
C3114      C4837   1.485       .  S
Zr3137     O3138   2.437   1_556  S
Zr3137     O3139   2.430       .  S
Zr3137     O3140   2.428       .  S
Zr3137     O3143   2.413   1_556  S
Zr3137     O3145   2.367       .  S
Zr3137     O3146   2.387       .  S
Zr3137     O3147   2.391       .  S
Zr3137     O3148   2.398   1_556  S
O3138      H3194   0.990       .  S
O3139      C3159   1.283       .  A
O3140      C3161   1.287       .  A
O3141     Zr3151   2.409       .  S
O3141      C3160   1.280       .  A
O3142     Zr3150   2.396       .  S
O3142      C3161   1.277       .  A
O3143      C3160   1.284       .  A
O3144     Zr3152   2.575       .  S
O3144      C3159   1.309       .  A
O3145     Zr3150   2.397       .  S
O3145     Zr3152   2.340       .  S
O3146     Zr3151   2.426   1_556  S
O3146     Zr3152   2.366       .  S
O3146      H3181   0.965       .  S
O3147     Zr3150   2.403       .  S
O3147     Zr3167   2.377   1_556  S
O3147      H3184   0.965       .  S
O3148     Zr3151   2.408       .  S
O3148     Zr3167   2.367       .  S
Zr3149     O3174   2.438       .  S
Zr3149     O3168   2.496       .  S
Zr3149     O3176   2.430       .  S
Zr3149     O3164   2.377       .  S
Zr3149     O3155   2.422       .  S
Zr3149     O3156   2.434       .  S
Zr3149     O3157   2.369       .  S
Zr3149     O3158   2.363       .  S
Zr3150     O3169   2.439       .  S
Zr3150     O3162   2.435       .  S
Zr3150     O3163   2.432       .  S
Zr3150     O3156   2.387       .  S
Zr3150     O3157   2.371       .  S
Zr3151     O3153   2.438       .  S
Zr3151     O3175   2.438   1_554  S
Zr3151     O3177   2.514       .  S
Zr3151     O3155   2.377   1_554  S
Zr3151     O3158   2.366   1_554  S
Zr3152     O3178   2.436       .  S
Zr3152     O3179   2.436       .  S
Zr3152     O3154   2.438       .  S
Zr3152     O3155   2.466       .  S
Zr3152     O3156   2.446       .  S
O3153      H3190   0.990       .  S
O3154      H3185   0.990       .  S
O3154      H3199   0.990       .  S
O3156      H3182   0.967       .  S
O3157     Zr3167   2.378   1_556  S
O3158     Zr3167   2.378   1_556  S
O3158      H3183   0.964   1_556  S
C3159      C4642   1.553       .  S
C3161      C5141   1.458       .  S
O3162      H3198   0.989       .  S
O3163      C3165   1.285       .  A
O3164      C3165   1.275       .  A
C3165      C4674   1.465       .  S
O3166      H3195   0.990       .  S
Zr3167     O3170   2.436       .  S
Zr3167     O3172   2.376       .  S
O3168      C3173   1.296       .  A
O3169      H3186   0.990       .  S
O3169      H3201   0.990       .  S
O3171      H3191   0.991       .  S
O3171      H3200   0.989       .  S
O3172      C3173   1.274   1_554  A
C3173      C4706   1.489   1_556  S
O3174      H3193   0.990       .  S
O3174      H3197   0.991       .  S
O3175      H3189   0.989       .  S
O3175      H3196   0.990   1_556  S
O3176      C3180   1.282       .  A
O3177      C3180   1.297   1_554  A
O3178      H3188   0.990       .  S
O3179      H3192   0.990       .  S
C3180      C4690   1.513   1_556  S
Zr3203     O3204   2.429       .  S
Zr3203     O3205   2.428   1_556  S
Zr3203     O3206   2.441   1_556  S
Zr3203     O3209   2.446       .  S
Zr3203     O3211   2.392   1_556  S
Zr3203     O3212   2.384   1_556  S
Zr3203     O3213   2.419       .  S
Zr3203     O3214   2.402       .  S
O3204      H3260   0.989       .  S
O3204      H3268   0.990       .  S
O3205      C3225   1.282       .  A
O3206      C3227   1.275   1_554  A
O3207     Zr3217   2.393   1_556  S
O3207      C3226   1.269       .  A
O3208     Zr3216   2.427   1_556  S
O3208      C3227   1.276       .  A
O3209      C3226   1.284       .  A
O3210     Zr3218   2.544       .  S
O3211     Zr3216   2.414       .  S
O3212     Zr3217   2.425       .  S
O3212      H3247   0.966       .  S
O3213     Zr3216   2.440   1_556  S
O3213     Zr3233   2.360       .  S
O3213      H3250   0.956       .  S
O3214     Zr3217   2.398   1_556  S
O3214     Zr3233   2.371       .  S
Zr3215     O3234   2.551       .  S
Zr3215     O3242   2.467       .  S
Zr3215     O3221   2.434       .  S
Zr3215     O3223   2.375       .  S
Zr3215     O3224   2.362   1_554  S
Zr3216     O3235   2.443       .  S
Zr3216     O3223   2.392       .  S
Zr3217     O3219   2.435   1_554  S
Zr3217     O3241   2.433       .  S
Zr3217     O3243   2.474       .  S
Zr3217     O3221   2.370       .  S
Zr3217     O3224   2.388   1_554  S
Zr3218     O3244   2.436       .  S
Zr3218     O3245   2.437       .  S
Zr3218     O3220   2.438       .  S
Zr3218     O3222   2.429       .  S
O3219      H3256   0.989       .  S
O3220      H3251   0.990       .  S
O3220      H3265   0.989       .  S
O3222      H3248   0.968       .  S
O3223     Zr3233   2.380   1_554  S
O3224     Zr3233   2.363       .  S
O3224      H3249   0.963       .  S
C3225      C4578   1.537   1_655  S
C3226      C4594   1.470       .  S
C3227      C4882   1.469       .  S
O3228      H3264   0.990       .  S
O3229      C3231   1.287       .  A
O3230      C3231   1.273       .  A
C3231      C4629   1.460       .  S
O3232     Zr3233   2.438       .  S
O3232      H3261   0.990       .  S
Zr3233     O3236   2.434       .  S
Zr3233     O3237   2.439       .  S
Zr3233     O3238   2.393       .  S
O3234      C3239   1.306   1_554  A
O3235      H3252   0.990       .  S
O3235      H3267   0.990       .  S
O3236      H3253   0.991       .  S
O3237      H3257   0.991       .  S
O3237      H3266   0.989       .  S
O3238      C3239   1.276       .  A
C3239      C4613   1.518       .  S
O3240      H3259   0.990       .  S
O3240      H3263   0.990       .  S
O3241      H3255   0.989       .  S
O3241      H3262   0.990       .  S
O3242      C3246   1.293       .  A
O3243      C3246   1.291       .  A
O3244      H3254   0.991       .  S
O3245      H3258   0.990       .  S
C3246      C4693   1.523       .  S
Zr3269     O3270   2.441       .  S
Zr3269     O3271   2.484       .  S
Zr3269     O3272   2.418       .  S
Zr3269     O3275   2.389       .  S
Zr3269     O3277   2.365       .  S
Zr3269     O3278   2.374       .  S
Zr3269     O3279   2.410       .  S
Zr3269     O3280   2.424       .  S
O3270      H3326   0.990       .  S
O3270      H3334   0.990       .  S
O3271      C3291   1.293       .  A
O3272      C3293   1.283       .  A
O3273     Zr3283   2.530       .  S
O3273      C3292   1.303       .  A
O3274     Zr3282   2.463       .  S
O3274      C3293   1.287       .  A
O3275      C3292   1.275       .  A
O3276     Zr3284   2.368       .  S
O3276      C3291   1.272       .  A
O3277     Zr3282   2.392       .  S
O3277     Zr3284   2.390       .  S
O3278     Zr3283   2.372       .  S
O3278     Zr3284   2.375       .  S
O3278      H3313   0.965       .  S
O3279     Zr3282   2.380       .  S
O3279     Zr3299   2.425       .  S
O3279      H3316   0.963       .  S
O3280     Zr3283   2.388       .  S
O3280     Zr3299   2.434       .  S
Zr3281     O3306   2.441       .  S
Zr3281     O3300   2.438       .  S
Zr3281     O3308   2.408       .  S
Zr3281     O3296   2.443       .  S
Zr3281     O3287   2.407       .  S
Zr3281     O3288   2.399       .  S
Zr3281     O3289   2.378       .  S
Zr3281     O3290   2.389       .  S
Zr3282     O3301   2.437       .  S
Zr3282     O3294   2.437       .  S
Zr3282     O3295   2.400       .  S
Zr3282     O3288   2.411       .  S
Zr3282     O3289   2.407       .  S
Zr3283     O3285   2.436       .  S
Zr3283     O3307   2.437       .  S
Zr3283     O3309   2.458       .  S
Zr3283     O3287   2.415       .  S
Zr3283     O3290   2.420       .  S
Zr3284     O3310   2.433       .  S
Zr3284     O3311   2.436       .  S
Zr3284     O3286   2.439       .  S
Zr3284     O3287   2.379       .  S
Zr3284     O3288   2.359       .  S
O3285      H3322   0.990       .  S
O3286      H3317   0.990       .  S
O3286      H3331   0.989       .  S
O3288      H3314   0.962       .  S
O3289     Zr3299   2.360       .  S
O3290     Zr3299   2.359       .  S
O3290      H3315   0.965       .  S
C3291      C4821   1.480       .  S
C3292      C4754   1.504       .  S
C3293      C3359   1.480       .  S
O3294      H3330   0.990       .  S
O3295      C3297   1.278       .  A
O3296      C3297   1.287       .  A
C3297      C4677   1.456       .  S
O3298     Zr3299   2.435       .  S
O3298      H3327   0.990       .  S
Zr3299     O3302   2.436       .  S
Zr3299     O3303   2.440       .  S
Zr3299     O3304   2.505       .  S
O3300      C3305   1.284       .  A
O3301      H3318   0.991       .  S
O3301      H3333   0.990       .  S
O3302      H3319   0.990       .  S
O3303      H3323   0.990       .  S
O3303      H3332   0.990       .  S
O3304      C3305   1.298       .  A
C3305      C4610   1.534       .  S
O3306      H3325   0.989       .  S
O3306      H3329   0.988       .  S
O3307      H3321   0.991       .  S
O3307      H3328   0.990       .  S
O3308      C3312   1.283       .  A
O3309      C3312   1.288       .  A
O3310      H3320   0.989       .  S
O3311      H3324   0.989       .  S
C3312      C3378   1.466   1_556  S
Zr3335     O3336   2.432       .  S
Zr3335     O3337   2.408       .  S
Zr3335     O3338   2.388       .  S
Zr3335     O3341   2.385       .  S
Zr3335     O3343   2.360       .  S
Zr3335     O3344   2.379       .  S
Zr3335     O3345   2.382       .  S
Zr3335     O3346   2.391       .  S
O3336      H3392   0.991       .  S
O3336      H3400   0.989       .  S
O3337      C3357   1.279       .  A
O3338      C3359   1.278       .  A
O3339     Zr3349   2.494       .  S
O3339      C3358   1.297       .  A
O3340     Zr3348   2.486       .  S
O3340      C3359   1.293       .  A
O3341      C3358   1.278       .  A
O3342     Zr3350   2.404       .  S
O3342      C3357   1.280       .  A
O3343     Zr3348   2.368       .  S
O3343     Zr3350   2.373       .  S
O3344     Zr3349   2.382       .  S
O3344     Zr3350   2.352       .  S
O3344      H3379   0.966       .  S
O3345     Zr3348   2.387       .  S
O3345     Zr3365   2.397       .  S
O3345      H3382   0.967       .  S
O3346     Zr3349   2.402       .  S
O3346     Zr3365   2.407       .  S
Zr3347     O3366   2.452       .  S
Zr3347     O3362   2.441       .  S
Zr3347     O3353   2.411       .  S
Zr3347     O3354   2.407       .  S
Zr3347     O3355   2.380       .  S
Zr3347     O3356   2.383       .  S
Zr3348     O3367   2.432       .  S
Zr3348     O3360   2.433       .  S
Zr3348     O3361   2.424       .  S
Zr3348     O3354   2.419       .  S
Zr3348     O3355   2.408       .  S
Zr3349     O3351   2.433       .  S
Zr3349     O3373   2.437       .  S
Zr3349     O3353   2.406       .  S
Zr3349     O3356   2.417       .  S
Zr3350     O3376   2.437       .  S
Zr3350     O3377   2.436       .  S
Zr3350     O3352   2.438       .  S
Zr3350     O3353   2.394       .  S
Zr3350     O3354   2.350       .  S
O3351      H3388   0.990       .  S
O3352      H3383   0.991       .  S
O3352      H3397   0.991       .  S
O3354      H3380   0.961       .  S
O3355     Zr3365   2.384       .  S
O3356     Zr3365   2.371       .  S
O3356      H3381   0.965       .  S
C3357      C4773   1.476       .  S
C3358      C4853   1.499       .  S
O3360      H3396   0.991       .  S
O3361      C3363   1.283       .  A
O3362      C3363   1.288       .  A
C3363      C4626   1.478       .  S
O3364     Zr3365   2.437       .  S
O3364      H3393   0.989       .  S
Zr3365     O3368   2.436       .  S
Zr3365     O3369   2.439       .  S
Zr3365     O3370   2.433       .  S
O3366      C3371   1.286       .  A
O3367      H3384   0.990       .  S
O3367      H3399   0.989       .  S
O3368      H3385   0.990       .  S
O3369      H3389   0.991       .  S
O3369      H3398   0.990       .  S
O3370      C3371   1.285       .  A
C3371      C4709   1.500       .  S
O3372      H3391   0.990       .  S
O3373      H3387   0.991       .  S
O3373      H3394   0.989       .  S
O3374      C3378   1.281       .  A
O3375      C3378   1.289       .  A
O3376      H3386   0.990       .  S
O3377      H3390   0.991       .  S
Zr3401     O3402   2.439       .  S
Zr3401     O3403   2.466       .  S
Zr3401     O3404   2.444       .  S
Zr3401     O3407   2.399       .  S
Zr3401     O3409   2.380       .  S
Zr3401     O3410   2.414       .  S
Zr3401     O3411   2.428       .  S
Zr3401     O3412   2.430       .  S
O3402      H3458   0.991       .  S
O3402      H3466   0.990       .  S
O3403      C3423   1.279       .  A
O3404      C3425   1.285       .  A
O3405     Zr3415   2.448       .  S
O3405      C3424   1.284       .  A
O3406     Zr3414   2.488       .  S
O3406      C3425   1.293       .  A
O3407      C3424   1.276       .  A
O3408     Zr3416   2.388       .  S
O3408      C3423   1.265       .  A
O3409     Zr3414   2.352       .  S
O3409     Zr3416   2.371       .  S
O3410     Zr3415   2.372       .  S
O3410     Zr3416   2.382       .  S
O3410      H3445   0.966       .  S
O3411     Zr3414   2.392       .  S
O3411     Zr3431   2.459       .  S
O3411      H3448   0.967       .  S
O3412     Zr3415   2.379       .  S
O3412     Zr3431   2.434       .  S
Zr3413     O3438   2.443       .  S
Zr3413     O3432   2.435       .  S
Zr3413     O3440   2.427       .  S
Zr3413     O3428   2.444       .  S
Zr3413     O3419   2.391       .  S
Zr3413     O3420   2.405       .  S
Zr3413     O3421   2.383       .  S
Zr3413     O3422   2.392       .  S
Zr3414     O3433   2.436       .  S
Zr3414     O3426   2.432       .  S
Zr3414     O3427   2.409       .  S
Zr3414     O3420   2.417       .  S
Zr3414     O3421   2.415       .  S
Zr3415     O3417   2.432       .  S
Zr3415     O3439   2.438       .  S
Zr3415     O3441   2.403       .  S
Zr3415     O3419   2.409       .  S
Zr3415     O3422   2.387       .  S
Zr3416     O3442   2.433       .  S
Zr3416     O3443   2.437       .  S
Zr3416     O3418   2.435       .  S
Zr3416     O3419   2.360       .  S
Zr3416     O3420   2.363       .  S
O3417      H3454   0.990       .  S
O3418      H3449   0.989       .  S
O3418      H3463   0.990       .  S
O3420      H3446   0.965       .  S
O3421     Zr3431   2.376       .  S
O3422     Zr3431   2.366       .  S
O3422      H3447   0.966       .  S
C3423      C4565   1.484       .  S
C3424      C4530   1.482       .  S
C3425      C4546   1.509       .  S
O3426      H3462   0.991       .  S
O3427      C3429   1.278       .  A
O3428      C3429   1.288       .  A
C3429      C4514   1.481       .  S
O3430     Zr3431   2.437       .  S
O3430      H3459   0.990       .  S
Zr3431     O3434   2.435       .  S
Zr3431     O3435   2.438       .  S
Zr3431     O3436   2.531       .  S
O3432      C3437   1.281       .  A
O3433      H3450   0.991       .  S
O3433      H3465   0.990       .  S
O3434      H3451   0.990       .  S
O3435      H3455   0.990       .  S
O3435      H3464   0.989       .  S
O3436      C3437   1.301       .  A
C3437      C5125   1.540       .  S
O3438      H3457   0.991       .  S
O3438      H3461   0.989       .  S
O3439      H3453   0.990       .  S
O3439      H3460   0.991       .  S
O3440      C3444   1.284       .  A
O3441      C3444   1.277       .  A
O3442      H3452   0.990       .  S
O3443      H3456   0.990       .  S
C3444      C4661   1.447       .  S
Zr3467     O3469   2.491       .  S
Zr3467     O3470   2.452       .  S
Zr3467     O3475   2.367       .  S
Zr3467     O3476   2.389       .  S
Zr3467     O3477   2.425       .  S
Zr3467     O3478   2.432       .  S
O3468      H3524   0.990       .  S
O3468      H3532   0.991       .  S
O3469      C3489   1.294       .  A
O3470      C3491   1.287       .  A
O3471     Zr3481   2.406       .  S
O3472     Zr3480   2.469       .  S
O3472      C3491   1.290       .  A
O3473      C3490   1.271       .  A
O3474     Zr3482   2.406       .  S
O3474      C3489   1.280       .  A
O3475     Zr3480   2.380       .  S
O3475     Zr3482   2.380       .  S
O3476     Zr3481   2.421       .  S
O3476     Zr3482   2.360       .  S
O3476      H3511   0.963       .  S
O3477     Zr3480   2.392       .  S
O3477      H3514   0.967       .  S
O3478     Zr3481   2.416       .  S
Zr3479     O3504   2.434       .  S
Zr3479     O3498   2.417       .  S
Zr3479     O3506   2.404       .  S
Zr3479     O3494   2.378       .  S
Zr3479     O3485   2.385       .  S
Zr3479     O3486   2.396       .  S
Zr3479     O3487   2.379       .  S
Zr3479     O3488   2.367       .  S
Zr3480     O3499   2.434       .  S
Zr3480     O3492   2.436       .  S
Zr3480     O3493   2.421       .  S
Zr3480     O3486   2.399       .  S
Zr3480     O3487   2.408       .  S
Zr3481     O3505   2.436       .  S
Zr3481     O3507   2.442       .  S
Zr3481     O3485   2.402       .  S
Zr3481     O3488   2.381       .  S
Zr3482     O3508   2.435       .  S
Zr3482     O3509   2.436       .  S
Zr3482     O3484   2.439       .  S
Zr3482     O3485   2.403       .  S
Zr3482     O3486   2.371       .  S
O3483      H3520   0.990       .  S
O3484      H3515   0.990       .  S
O3484      H3529   0.991       .  S
O3486      H3512   0.964       .  S
O3488      H3513   0.964       .  S
C3489      C4485   1.494       .  S
C3490      C4501   1.473       .  S
C3491      C4549   1.521       .  S
O3492      H3528   0.990       .  S
O3493      C3495   1.283       .  A
O3494      C3495   1.277       .  A
C3495      C4469   1.470       .  S
O3496     Zr3497   2.435   1_556  S
O3496      H3525   0.991       .  S
Zr3497     O3500   2.435       .  S
Zr3497     O3501   2.436   1_554  S
Zr3497     O3502   2.515       .  S
O3498      C3503   1.281       .  A
O3499      H3516   0.990       .  S
O3499      H3531   0.990       .  S
O3500      H3517   0.989       .  S
O3501      H3521   0.989       .  S
O3501      H3530   0.990       .  S
C3503      C5077   1.525       .  S
O3504      H3523   0.991       .  S
O3504      H3527   0.990       .  S
O3505      H3519   0.990       .  S
O3505      H3526   0.990       .  S
O3506      C3510   1.283       .  A
O3507      C3510   1.284       .  A
O3508      H3518   0.990       .  S
O3509      H3522   0.990       .  S
C3510      C4805   1.469   1_545  S
Zr3533     O3534   2.436       .  S
Zr3533     O3535   2.486       .  S
Zr3533     O3536   2.412       .  S
Zr3533     O3539   2.400       .  S
Zr3533     O3541   2.380       .  S
Zr3533     O3542   2.387       .  S
Zr3533     O3543   2.426       .  S
Zr3533     O3544   2.435       .  S
O3534      H3590   0.990       .  S
O3534      H3598   0.991       .  S
O3535      C3555   1.285       .  A
O3536      C3557   1.280       .  A
O3537     Zr3547   2.460       .  S
O3537      C3556   1.288       .  A
O3538     Zr3546   2.471       .  S
O3538      C3557   1.291       .  A
O3539      C3556   1.280       .  A
O3540     Zr3548   2.399       .  S
O3540      C3555   1.263       .  A
O3541     Zr3546   2.384       .  S
O3541     Zr3548   2.367       .  S
O3542     Zr3547   2.386       .  S
O3542     Zr3548   2.360       .  S
O3542      H3577   0.964       .  S
O3543     Zr3546   2.393       .  S
O3543     Zr3563   2.442       .  S
O3543      H3580   0.966       .  S
O3544     Zr3547   2.383       .  S
O3544     Zr3563   2.447       .  S
Zr3545     O3570   2.441       .  S
Zr3545     O3564   2.495       .  S
Zr3545     O3572   2.440       .  S
Zr3545     O3560   2.462       .  S
Zr3545     O3552   2.410       .  S
Zr3545     O3553   2.377       .  S
Zr3545     O3554   2.387       .  S
Zr3545     O3551   2.278       .  S
Zr3546     O3565   2.440   1_655  S
Zr3546     O3558   2.441   1_655  S
Zr3546     O3559   2.425       .  S
Zr3546     O3552   2.421       .  S
Zr3546     O3553   2.419       .  S
Zr3547     O3549   2.438       .  S
Zr3547     O3571   2.444       .  S
Zr3547     O3573   2.425       .  S
Zr3547     O3554   2.399       .  S
Zr3547     O3551   2.281       .  S
Zr3548     O3574   2.429       .  S
Zr3548     O3575   2.432       .  S
Zr3548     O3550   2.447       .  S
Zr3548     O3552   2.333       .  S
Zr3548     O3551   2.295       .  S
O3549      H3586   0.990       .  S
O3550      H3581   0.991       .  S
O3550      H3595   0.990       .  S
O3552      H3578   0.965       .  S
O3553     Zr3563   2.399       .  S
O3554     Zr3563   2.388       .  S
O3554      H3579   0.966       .  S
C3555      C4453   1.491       .  S
C3556      C4418   1.478       .  S
C3557      C4434   1.481       .  S
O3558      H3594   0.989       .  S
O3559      C3561   1.281       .  A
O3560      C3561   1.293       .  A
C3561      C4402   1.481       .  S
O3562     Zr3563   2.438       .  S
O3562      H3591   0.990       .  S
Zr3563     O3566   2.437   1_655  S
Zr3563     O3567   2.438       .  S
Zr3563     O3568   2.501       .  S
O3564      C3569   1.295       .  A
O3565      H3582   0.990       .  S
O3565      H3597   0.990       .  S
O3566      H3583   0.990       .  S
O3567      H3587   0.990       .  S
O3567      H3596   0.990       .  S
O3568      C3569   1.294       .  A
C3569      C4949   1.551       .  S
O3570      H3589   0.991       .  S
O3570      H3593   0.989       .  S
O3571      H3585   0.991       .  S
O3571      H3592   0.989       .  S
O3572      C3576   1.288       .  A
O3573      C3576   1.281       .  A
O3574      H3584   0.989       .  S
O3575      H3588   0.989       .  S
C3576      C4741   1.478       .  S
Zr3599     O3600   2.442       .  S
Zr3599     O3601   2.514       .  S
Zr3599     O3602   2.435       .  S
Zr3599     O3605   2.386       .  S
Zr3599     O3607   2.367       .  S
Zr3599     O3608   2.385       .  S
Zr3599     O3609   2.427       .  S
Zr3599     O3610   2.437       .  S
O3600      H3656   0.990       .  S
O3600      H3664   0.990       .  S
O3601      C3621   1.299       .  A
O3602      C3623   1.283       .  A
O3603     Zr3613   2.439       .  S
O3603      C3622   1.279       .  A
O3604     Zr3612   2.438       .  S
O3604      C3623   1.284       .  A
O3605      C3622   1.271       .  A
O3606     Zr3614   2.419       .  S
O3606      C3621   1.281       .  A
O3607     Zr3612   2.397       .  S
O3607     Zr3614   2.385       .  S
O3608     Zr3613   2.408       .  S
O3608     Zr3614   2.363       .  S
O3608      H3643   0.965       .  S
O3609     Zr3612   2.385       .  S
O3609     Zr3629   2.438       .  S
O3609      H3646   0.967       .  S
O3610     Zr3613   2.395       .  S
O3610     Zr3629   2.442       .  S
Zr3611     O3636   2.436       .  S
Zr3611     O3630   2.398       .  S
Zr3611     O3638   2.419       .  S
Zr3611     O3626   2.407       .  S
Zr3611     O3617   2.403       .  S
Zr3611     O3618   2.400       .  S
Zr3611     O3619   2.377       .  S
Zr3611     O3620   2.386       .  S
Zr3612     O3631   2.437       .  S
Zr3612     O3624   2.433       .  S
Zr3612     O3625   2.412       .  S
Zr3612     O3618   2.398       .  S
Zr3612     O3619   2.406       .  S
Zr3613     O3615   2.436       .  S
Zr3613     O3637   2.440       .  S
Zr3613     O3639   2.419       .  S
Zr3613     O3617   2.416       .  S
Zr3613     O3620   2.404       .  S
Zr3614     O3640   2.434       .  S
Zr3614     O3641   2.433       .  S
Zr3614     O3616   2.436       .  S
Zr3614     O3617   2.394       .  S
Zr3614     O3618   2.368       .  S
O3615      H3652   0.990       .  S
O3616      H3647   0.991       .  S
O3616      H3661   0.989       .  S
O3618      H3644   0.965       .  S
O3619     Zr3629   2.362       .  S
O3620     Zr3629   2.354       .  S
O3620      H3645   0.966       .  S
C3621      C4373   1.513       .  S
C3622      C4386   1.472       .  S
C3623      C4437   1.479       .  S
O3624      H3660   0.990       .  S
O3625      C3627   1.282       .  A
O3626      C3627   1.281       .  A
C3627      C4354   1.450   1_655  S
O3628     Zr3629   2.436       .  S
O3628      H3657   0.991       .  S
Zr3629     O3632   2.436       .  S
Zr3629     O3633   2.439       .  S
Zr3629     O3634   2.538       .  S
O3630      C3635   1.276       .  A
O3631      H3648   0.991       .  S
O3631      H3663   0.990   1_655  S
O3632      H3649   0.990       .  S
O3633      H3653   0.991       .  S
O3633      H3662   0.990       .  S
O3634      C3635   1.302       .  A
C3635      C4866   1.512       .  S
O3636      H3655   0.987       .  S
O3636      H3659   0.989       .  S
O3637      H3651   0.990       .  S
O3637      H3658   0.991       .  S
O3638      C3642   1.269       .  A
O3639      C3642   1.278       .  A
O3640      H3650   0.990       .  S
O3641      H3654   0.989       .  S
C3642      C4597   1.453       .  S
Zr3665     O3671   2.436       .  S
Zr3665     O3673   2.387       .  S
Zr3665     O3674   2.382   1_554  S
Zr3665     O3675   2.394       .  S
Zr3665     O3676   2.371   1_554  S
O3666      H3722   0.991       .  S
O3666      H3730   0.989       .  S
O3668      C3689   1.283       .  A
O3669     Zr3679   2.390       .  S
O3669      C3688   1.277   1_556  A
O3670      C3689   1.293       .  A
O3671      C3688   1.287       .  A
O3672     Zr3680   2.485   1_554  S
O3672      C3687   1.292       .  A
O3673     Zr3678   2.409       .  S
O3673     Zr3680   2.360   1_554  S
O3674     Zr3679   2.387       .  S
O3674     Zr3680   2.364       .  S
O3674      H3709   0.964       .  S
O3675     Zr3678   2.421       .  S
O3675     Zr3695   2.369   1_554  S
O3676     Zr3679   2.400       .  S
O3676     Zr3695   2.363       .  S
Zr3677     O3702   2.443       .  S
Zr3677     O3696   2.470       .  S
Zr3677     O3704   2.424       .  S
Zr3677     O3692   2.383       .  S
Zr3677     O3683   2.405       .  S
Zr3677     O3684   2.427       .  S
Zr3677     O3685   2.383       .  S
Zr3677     O3686   2.360       .  S
Zr3678     O3697   2.438       .  S
Zr3678     O3690   2.436       .  S
Zr3678     O3691   2.528   1_554  S
Zr3678     O3684   2.398   1_554  S
Zr3678     O3685   2.393   1_554  S
Zr3679     O3681   2.437       .  S
Zr3679     O3703   2.438       .  S
Zr3679     O3705   2.427       .  S
Zr3679     O3683   2.386       .  S
Zr3679     O3686   2.383       .  S
Zr3680     O3706   2.436       .  S
Zr3680     O3707   2.436       .  S
Zr3680     O3682   2.439   1_556  S
Zr3680     O3683   2.421       .  S
Zr3680     O3684   2.430       .  S
O3681      H3718   0.991       .  S
O3682      H3713   0.991       .  S
O3682      H3727   0.989       .  S
O3684      H3710   0.965       .  S
O3685     Zr3695   2.383       .  S
O3686     Zr3695   2.394       .  S
O3686      H3711   0.966       .  S
C3688      C4498   1.465       .  S
C3689      C3755   1.483       .  S
O3691      C3693   1.303       .  A
O3692      C3693   1.274       .  A
C3693      C4370   1.500       .  S
O3694     Zr3695   2.436   1_554  S
O3694      H3723   0.990       .  S
Zr3695     O3698   2.436   1_556  S
Zr3695     O3699   2.438       .  S
Zr3695     O3700   2.354       .  S
O3696      C3701   1.290       .  A
O3698      H3715   0.990       .  S
O3699      H3719   0.990       .  S
O3699      H3728   0.990       .  S
O3700      C3701   1.270       .  A
C3701      C4421   1.485       .  S
O3702      H3721   0.991       .  S
O3702      H3725   0.990       .  S
O3703      H3717   0.991       .  S
O3703      H3724   0.989       .  S
O3704      C3708   1.284       .  A
O3705      C3708   1.278       .  A
O3706      H3716   0.991       .  S
O3707      H3720   0.989       .  S
C3708      C3774   1.470       .  S
Zr3731     O3732   2.433       .  S
Zr3731     O3733   2.408       .  S
Zr3731     O3734   2.433       .  S
Zr3731     O3737   2.440       .  S
Zr3731     O3739   2.377       .  S
Zr3731     O3740   2.393       .  S
Zr3731     O3741   2.398       .  S
Zr3731     O3742   2.379       .  S
O3732      H3788   0.989       .  S
O3732      H3796   0.991       .  S
O3733      C3753   1.277       .  A
O3734      C3755   1.286       .  A
O3735     Zr3745   2.413       .  S
O3735      C3754   1.280       .  A
O3736     Zr3744   2.467       .  S
O3736      C3755   1.290       .  A
O3737      C3754   1.288       .  A
O3738     Zr3746   2.482       .  S
O3738      C3753   1.295       .  A
O3739     Zr3744   2.411       .  S
O3739     Zr3746   2.364       .  S
O3740     Zr3745   2.409       .  S
O3740     Zr3746   2.370       .  S
O3740      H3775   0.967       .  S
O3741     Zr3744   2.418       .  S
O3741     Zr3761   2.384       .  S
O3741      H3778   0.965       .  S
O3742     Zr3745   2.401       .  S
O3742     Zr3761   2.352       .  S
Zr3743     O3768   2.436       .  S
Zr3743     O3762   2.433       .  S
Zr3743     O3770   2.365       .  S
Zr3743     O3758   2.351       .  S
Zr3743     O3749   2.395       .  S
Zr3743     O3750   2.400       .  S
Zr3743     O3751   2.372       .  S
Zr3743     O3752   2.363       .  S
Zr3744     O3763   2.435       .  S
Zr3744     O3756   2.434       .  S
Zr3744     O3757   2.527       .  S
Zr3744     O3750   2.391       .  S
Zr3744     O3751   2.381       .  S
Zr3745     O3747   2.436       .  S
Zr3745     O3769   2.438       .  S
Zr3745     O3771   2.484       .  S
Zr3745     O3749   2.375       .  S
Zr3745     O3752   2.377       .  S
Zr3746     O3772   2.435       .  S
Zr3746     O3773   2.436       .  S
Zr3746     O3748   2.437       .  S
Zr3746     O3749   2.420       .  S
Zr3746     O3750   2.422       .  S
O3747      H3784   0.990       .  S
O3748      H3779   0.990       .  S
O3748      H3793   0.990       .  S
O3750      H3776   0.967       .  S
O3751     Zr3761   2.383       .  S
O3752     Zr3761   2.380       .  S
O3752      H3777   0.967       .  S
C3753      C4482   1.507       .  S
C3754      C4533   1.457       .  S
O3756      H3792   0.990       .  S
O3757      C3759   1.302       .  A
O3758      C3759   1.269       .  A
C3759      C4450   1.492       .  S
O3760     Zr3761   2.436       .  S
O3760      H3789   0.990       .  S
Zr3761     O3764   2.433       .  S
Zr3761     O3765   2.440       .  S
Zr3761     O3766   2.379       .  S
O3762      C3767   1.283       .  A
O3763      H3780   0.990       .  S
O3763      H3795   0.990       .  S
O3764      H3781   0.989       .  S
O3765      H3785   0.990       .  S
O3765      H3794   0.990       .  S
O3766      C3767   1.276       .  A
C3767      C4389   1.473       .  S
O3768      H3787   0.990       .  S
O3768      H3791   0.990       .  S
O3769      H3783   0.991       .  S
O3769      H3790   0.990       .  S
O3770      C3774   1.271       .  A
O3771      C3774   1.291       .  A
O3772      H3782   0.990       .  S
O3773      H3786   0.991       .  S
Zr3797     O3798   2.438   1_545  S
Zr3797     O3799   2.432   1_545  S
Zr3797     O3800   2.408       .  S
Zr3797     O3803   2.407   1_545  S
Zr3797     O3805   2.363       .  S
Zr3797     O3806   2.380   1_545  S
Zr3797     O3807   2.403       .  S
Zr3797     O3808   2.393       .  S
O3798      H3854   0.990       .  S
O3798      H3862   0.990   1_565  S
O3799      C3819   1.283       .  A
O3800      C3821   1.280       .  A
O3801     Zr3811   2.432       .  S
O3801      C3820   1.282       .  A
O3802     Zr3810   2.395       .  S
O3802      C3821   1.281       .  A
O3803      C3820   1.281       .  A
O3804     Zr3812   2.543       .  S
O3804      C3819   1.304   1_545  A
O3805     Zr3810   2.382       .  S
O3805     Zr3812   2.327       .  S
O3806     Zr3811   2.420       .  S
O3806     Zr3812   2.374   1_565  S
O3806      H3841   0.966       .  S
O3807     Zr3810   2.414       .  S
O3807     Zr3827   2.392       .  S
O3807      H3844   0.966       .  S
O3808     Zr3811   2.401   1_545  S
O3808     Zr3827   2.374       .  S
Zr3809     O3834   2.439       .  S
Zr3809     O3828   2.513       .  S
Zr3809     O3836   2.434       .  S
Zr3809     O3824   2.400       .  S
Zr3809     O3815   2.424       .  S
Zr3809     O3816   2.435       .  S
Zr3809     O3817   2.361       .  S
Zr3809     O3818   2.379       .  S
Zr3810     O3829   2.436       .  S
Zr3810     O3822   2.436       .  S
Zr3810     O3823   2.460       .  S
Zr3810     O3816   2.395       .  S
Zr3810     O3817   2.356       .  S
Zr3811     O3813   2.440       .  S
Zr3811     O3835   2.438       .  S
Zr3811     O3837   2.490   1_565  S
Zr3811     O3815   2.385   1_565  S
Zr3811     O3818   2.393   1_565  S
Zr3812     O3838   2.438   1_545  S
Zr3812     O3839   2.435       .  S
Zr3812     O3814   2.436       .  S
Zr3812     O3815   2.454       .  S
Zr3812     O3816   2.430       .  S
O3813      H3850   0.990       .  S
O3814      H3845   0.990       .  S
O3814      H3859   0.990       .  S
O3816      H3842   0.963       .  S
O3817     Zr3827   2.352       .  S
O3818     Zr3827   2.381       .  S
O3818      H3843   0.964       .  S
C3819      C4786   1.535       .  S
C3820      C5058   1.453       .  S
C3821      C4466   1.474       .  S
O3822      H3858   0.990       .  S
O3823      C3825   1.287       .  A
O3824      C3825   1.271       .  A
C3825      C4306   1.493       .  S
O3826     Zr3827   2.434       .  S
O3826      H3855   0.990       .  S
Zr3827     O3830   2.438       .  S
Zr3827     O3831   2.440       .  S
Zr3827     O3832   2.410       .  S
O3828      C3833   1.298       .  A
O3829      H3846   0.990       .  S
O3829      H3861   0.990       .  S
O3830      H3847   0.990       .  S
O3831      H3851   0.991       .  S
O3831      H3860   0.990       .  S
O3832      C3833   1.281       .  A
C3833      C4341   1.500       .  S
O3834      H3853   0.991       .  S
O3834      H3857   0.989       .  S
O3835      H3849   0.990       .  S
O3835      H3856   0.990       .  S
O3836      C3840   1.285       .  A
O3837      C3840   1.295       .  A
O3838      H3848   0.990       .  S
O3839      H3852   0.990       .  S
C3840      C4325   1.507       .  S
Zr3863     O3864   2.399       .  S
Zr3863     O3865   2.379       .  S
Zr3863     O3866   2.409       .  S
Zr3863     O3869   2.399       .  S
Zr3863     O3871   2.371       .  S
Zr3863     O3872   2.401       .  S
Zr3863     O3873   2.390       .  S
Zr3863     O3874   2.393       .  S
O3864      H3920   0.988   1_455  S
O3864      H3928   0.987       .  S
O3865      C3885   1.273       .  A
O3866      C3887   1.285       .  A
O3867     Zr3877   2.445       .  S
O3867      C3886   1.279       .  A
O3868     Zr3876   2.408       .  S
O3868      C3887   1.279       .  A
O3869      C3886   1.272       .  A
O3870     Zr3878   2.591       .  S
O3870      C3885   1.313       .  A
O3871     Zr3876   2.402       .  S
O3871     Zr3878   2.351       .  S
O3872     Zr3877   2.419       .  S
O3872     Zr3878   2.345       .  S
O3872      H3907   0.960       .  S
O3873     Zr3876   2.421       .  S
O3873     Zr3893   2.370       .  S
O3873      H3910   0.966       .  S
O3874     Zr3877   2.401       .  S
O3874     Zr3893   2.354       .  S
Zr3875     O3900   2.439       .  S
Zr3875     O3894   2.520       .  S
Zr3875     O3902   2.418       .  S
Zr3875     O3890   2.431       .  S
Zr3875     O3881   2.443       .  S
Zr3875     O3882   2.445       .  S
Zr3875     O3883   2.362       .  S
Zr3875     O3884   2.372       .  S
Zr3876     O3895   2.439       .  S
Zr3876     O3888   2.434       .  S
Zr3876     O3889   2.458       .  S
Zr3876     O3882   2.387       .  S
Zr3876     O3883   2.378       .  S
Zr3877     O3879   2.437       .  S
Zr3877     O3901   2.438   1_545  S
Zr3877     O3903   2.491       .  S
Zr3877     O3881   2.396       .  S
Zr3877     O3884   2.388       .  S
Zr3878     O3904   2.436   1_545  S
Zr3878     O3905   2.434       .  S
Zr3878     O3880   2.436       .  S
Zr3878     O3881   2.468       .  S
Zr3878     O3882   2.464       .  S
O3879      H3916   0.989   1_545  S
O3880      H3911   0.990       .  S
O3880      H3925   0.990       .  S
O3882      H3908   0.967       .  S
O3883     Zr3893   2.380       .  S
O3884     Zr3893   2.380       .  S
O3884      H3909   0.964       .  S
C3885      C4725   1.540   1_455  S
C3886      C4962   1.460       .  S
C3887      C4405   1.470   1_455  S
O3888      H3924   0.990       .  S
O3889      C3891   1.287       .  A
O3890      C3891   1.282       .  A
C3891      C4290   1.491       .  S
O3892     Zr3893   2.435       .  S
O3892      H3921   0.990       .  S
Zr3893     O3896   2.435       .  S
Zr3893     O3897   2.440       .  S
Zr3893     O3898   2.352       .  S
O3894      C3899   1.300       .  A
O3895      H3912   0.990       .  S
O3895      H3927   0.990       .  S
O3896      H3913   0.991       .  S
O3897      H3917   0.989       .  S
O3897      H3926   0.991       .  S
O3898      C3899   1.270       .  A
C3899      C4274   1.494       .  S
O3900      H3919   0.990       .  S
O3900      H3923   0.991       .  S
O3901      H3915   0.988       .  S
O3901      H3922   0.990       .  S
O3902      C3906   1.281       .  A
O3903      C3906   1.293       .  A
O3904      H3914   0.990       .  S
O3905      H3918   0.990       .  S
C3906      C4322   1.492       .  S
Zr3929     O3930   2.426       .  S
Zr3929     O3931   2.425       .  S
Zr3929     O3932   2.426       .  S
Zr3929     O3935   2.417   1_556  S
Zr3929     O3937   2.370       .  S
Zr3929     O3938   2.409       .  S
Zr3929     O3939   2.417       .  S
Zr3929     O3940   2.407       .  S
O3930      H3986   0.989       .  S
O3931      C3951   1.287       .  A
O3932      C3953   1.271       .  A
O3933     Zr3943   2.434   1_554  S
O3933      C3952   1.275       .  A
O3934     Zr3942   2.430       .  S
O3934      C3953   1.276       .  A
O3935      C3952   1.274       .  A
O3936     Zr3944   2.589       .  S
O3936      C3951   1.314       .  A
O3937     Zr3942   2.406       .  S
O3937     Zr3944   2.331       .  S
O3938     Zr3943   2.412       .  S
O3938     Zr3944   2.358       .  S
O3938      H3973   0.952       .  S
O3939     Zr3942   2.428       .  S
O3939     Zr3959   2.389       .  S
O3939      H3976   0.966       .  S
O3940     Zr3943   2.405       .  S
O3940     Zr3959   2.360       .  S
Zr3941     O3966   2.437       .  S
Zr3941     O3960   2.497       .  S
Zr3941     O3968   2.426       .  S
Zr3941     O3956   2.419       .  S
Zr3941     O3947   2.430       .  S
Zr3941     O3948   2.443       .  S
Zr3941     O3949   2.377       .  S
Zr3941     O3950   2.366       .  S
Zr3942     O3961   2.441       .  S
Zr3942     O3954   2.433       .  S
Zr3942     O3955   2.469       .  S
Zr3942     O3948   2.404       .  S
Zr3942     O3949   2.376       .  S
Zr3943     O3945   2.428   1_556  S
Zr3943     O3967   2.432       .  S
Zr3943     O3969   2.516       .  S
Zr3943     O3947   2.388       .  S
Zr3943     O3950   2.342       .  S
Zr3944     O3970   2.435       .  S
Zr3944     O3971   2.435       .  S
Zr3944     O3946   2.436       .  S
Zr3944     O3947   2.465       .  S
Zr3944     O3948   2.463       .  S
O3945      H3982   0.989       .  S
O3946      H3977   0.990       .  S
O3946      H3991   0.989       .  S
O3948      H3974   0.965       .  S
O3949     Zr3959   2.366       .  S
O3950     Zr3959   2.396       .  S
O3950      H3975   0.964       .  S
C3951      C4645   1.563       .  S
C3953      C4517   1.466       .  S
O3954      H3990   0.989       .  S
O3955      C3957   1.291       .  A
O3956      C3957   1.281       .  A
C3957      C4226   1.493       .  S
O3958      H3987   0.990       .  S
Zr3959     O3962   2.437       .  S
Zr3959     O3964   2.375       .  S
O3960      C3965   1.296       .  A
O3961      H3978   0.990       .  S
O3961      H3993   0.991       .  S
O3963      H3983   0.988       .  S
O3963      H3992   0.990       .  S
O3964      C3965   1.274       .  A
C3965      C4258   1.470       .  S
O3966      H3985   0.990       .  S
O3966      H3989   0.991       .  S
O3967      H3981   0.989       .  S
O3967      H3988   0.990       .  S
O3968      C3972   1.282       .  A
O3969      C3972   1.298       .  A
O3970      H3980   0.990       .  S
O3971      H3984   0.990       .  S
C3972      C4245   1.518       .  S
Zr3995     O3996   2.442       .  S
Zr3995     O3997   2.445       .  S
Zr3995     O3998   2.412       .  S
Zr3995     O4001   2.428       .  S
Zr3995     O4003   2.374       .  S
Zr3995     O4004   2.393       .  S
Zr3995     O4005   2.420       .  S
Zr3995     O4006   2.403       .  S
O3996      H4052   0.990       .  S
O3996      H4060   0.990       .  S
O3997      C4017   1.283   1_556  A
O3998      C4019   1.280       .  A
O3999     Zr4009   2.438       .  S
O3999      C4018   1.281       .  A
O4000     Zr4008   2.418       .  S
O4000      C4019   1.280       .  A
O4001      C4018   1.276       .  A
O4002     Zr4010   2.530       .  S
O4003     Zr4008   2.404       .  S
O4004     Zr4009   2.446       .  S
O4004      H4039   0.965       .  S
O4005     Zr4008   2.426       .  S
O4005     Zr4025   2.388       .  S
O4005      H4042   0.967       .  S
O4006     Zr4009   2.407       .  S
O4006     Zr4025   2.359       .  S
Zr4007     O4026   2.502       .  S
Zr4007     O4034   2.433       .  S
Zr4007     O4013   2.421   1_556  S
Zr4007     O4015   2.367       .  S
Zr4007     O4016   2.375       .  S
Zr4008     O4027   2.443       .  S
Zr4008     O4015   2.370       .  S
Zr4009     O4011   2.438       .  S
Zr4009     O4033   2.438   1_556  S
Zr4009     O4035   2.512       .  S
Zr4009     O4013   2.388   1_556  S
Zr4009     O4016   2.396       .  S
Zr4010     O4036   2.436       .  S
Zr4010     O4037   2.437       .  S
Zr4010     O4012   2.437       .  S
Zr4010     O4014   2.442       .  S
O4011      H4048   0.990       .  S
O4012      H4043   0.990       .  S
O4012      H4057   0.990       .  S
O4014      H4040   0.965       .  S
O4015     Zr4025   2.352       .  S
O4016     Zr4025   2.380       .  S
O4016      H4041   0.964       .  S
C4017      C4581   1.535       .  S
C4018      C4901   1.455       .  S
C4019      C4357   1.460       .  S
O4020      H4056   0.990       .  S
O4021      C4023   1.286       .  A
O4022      C4023   1.271       .  A
C4023      C4210   1.491       .  S
O4024     Zr4025   2.436       .  S
O4024      H4053   0.990       .  S
Zr4025     O4028   2.438       .  S
Zr4025     O4029   2.438       .  S
Zr4025     O4030   2.402       .  S
O4026      C4031   1.295       .  A
O4027      H4044   0.989       .  S
O4027      H4059   0.992       .  S
O4028      H4045   0.990       .  S
O4029      H4049   0.989       .  S
O4029      H4058   0.991       .  S
O4030      C4031   1.279       .  A
C4031      C4194   1.498       .  S
O4032      H4051   0.991       .  S
O4032      H4055   0.990       .  S
O4033      H4047   0.990       .  S
O4033      H4054   0.989       .  S
O4034      C4038   1.284       .  A
O4035      C4038   1.299       .  A
O4036      H4046   0.990       .  S
O4037      H4050   0.991       .  S
C4038      C4242   1.515       .  S
Zr4061     O4062   2.438       .  S
Zr4061     O4063   2.418       .  S
Zr4061     O4064   2.370       .  S
Zr4061     O4067   2.384       .  S
Zr4061     O4069   2.385       .  S
Zr4061     O4070   2.392       .  S
Zr4061     O4071   2.397       .  S
Zr4061     O4072   2.398       .  S
O4062      H4118   0.989       .  S
O4062      H4126   0.990       .  S
O4063      C4083   1.275       .  A
O4064      C4085   1.276       .  A
O4065     Zr4075   2.518       .  S
O4065      C4084   1.300       .  A
O4066     Zr4074   2.502       .  S
O4066      C4085   1.295       .  A
O4067      C4084   1.275       .  A
O4068     Zr4076   2.418       .  S
O4068      C4083   1.271       .  A
O4069     Zr4074   2.375       .  S
O4069     Zr4076   2.381       .  S
O4070     Zr4075   2.382       .  S
O4070     Zr4076   2.379       .  S
O4070      H4105   0.966       .  S
O4071     Zr4074   2.397       .  S
O4071     Zr4091   2.404       .  S
O4071      H4108   0.967       .  S
O4072     Zr4075   2.401       .  S
O4072     Zr4091   2.414       .  S
Zr4073     O4098   2.437       .  S
Zr4073     O4092   2.449       .  S
Zr4073     O4100   2.443       .  S
Zr4073     O4088   2.448       .  S
Zr4073     O4079   2.413       .  S
Zr4073     O4080   2.409       .  S
Zr4073     O4081   2.384       .  S
Zr4073     O4082   2.388       .  S
Zr4074     O4093   2.435       .  S
Zr4074     O4086   2.433       .  S
Zr4074     O4087   2.451       .  S
Zr4074     O4080   2.415       .  S
Zr4074     O4081   2.407       .  S
Zr4075     O4077   2.435       .  S
Zr4075     O4099   2.436       .  S
Zr4075     O4101   2.466       .  S
Zr4075     O4079   2.429       .  S
Zr4075     O4082   2.425       .  S
Zr4076     O4102   2.439       .  S
Zr4076     O4103   2.446       .  S
Zr4076     O4078   2.442       .  S
Zr4076     O4079   2.396       .  S
Zr4076     O4080   2.385       .  S
O4077      H4114   0.990       .  S
O4078      H4109   0.989       .  S
O4078      H4123   0.990       .  S
O4080      H4106   0.964       .  S
O4081     Zr4091   2.371       .  S
O4082     Zr4091   2.376       .  S
O4082      H4107   0.965       .  S
C4083      C4309   1.466       .  S
C4084      C4277   1.490       .  S
C4085      C4170   1.488       .  S
O4086      H4122   0.990       .  S
O4087      C4089   1.289       .  A
O4088      C4089   1.289       .  A
C4089      C4229   1.487       .  S
O4090     Zr4091   2.435       .  S
O4090      H4119   0.989       .  S
Zr4091     O4094   2.436       .  S
Zr4091     O4095   2.438       .  S
Zr4091     O4096   2.445       .  S
O4092      C4097   1.286       .  A
O4093      H4110   0.990       .  S
O4093      H4125   0.988       .  S
O4094      H4111   0.990       .  S
O4095      H4115   0.990       .  S
O4095      H4124   0.990       .  S
O4096      C4097   1.285       .  A
C4097      C4197   1.511       .  S
O4098      H4117   0.990       .  S
O4098      H4121   0.990       .  S
O4099      H4113   0.991       .  S
O4099      H4120   0.989       .  S
O4100      C4104   1.290       .  A
O4101      C4104   1.286       .  A
O4102      H4112   0.990       .  S
O4103      H4116   0.992       .  S
C4104      C4151   1.496       .  S
Zr4127     O4129   2.426       .  S
Zr4127     O4133   2.356       .  S
Zr4127     O4135   2.382       .  S
Zr4127     O4136   2.393       .  S
Zr4127     O4137   2.396       .  S
Zr4127     O4138   2.403       .  S
O4128      H4184   0.989       .  S
O4128      H4192   0.991       .  S
O4129      C4149   1.275       .  A
O4130      C4151   1.271       .  A
O4131     Zr4141   2.542       .  S
O4131      C4150   1.305       .  A
O4132      C4151   1.300       .  A
O4133      C4150   1.271       .  A
O4134     Zr4142   2.406       .  S
O4134      C4149   1.268       .  A
O4135     Zr4140   2.375       .  S
O4135     Zr4142   2.381       .  S
O4136     Zr4141   2.373       .  S
O4136     Zr4142   2.375       .  S
O4136      H4171   0.967       .  S
O4137     Zr4140   2.396       .  S
O4137     Zr4157   2.408       .  S
O4137      H4174   0.967       .  S
O4138     Zr4141   2.401       .  S
O4138     Zr4157   2.421       .  S
Zr4139     O4164   2.438       .  S
Zr4139     O4158   2.434       .  S
Zr4139     O4166   2.415       .  S
Zr4139     O4154   2.440       .  S
Zr4139     O4145   2.404       .  S
Zr4139     O4146   2.403       .  S
Zr4139     O4147   2.379       .  S
Zr4139     O4148   2.389       .  S
Zr4140     O4159   2.434       .  S
Zr4140     O4152   2.433       .  S
Zr4140     O4153   2.459       .  S
Zr4140     O4146   2.418       .  S
Zr4140     O4147   2.410       .  S
Zr4141     O4143   2.435       .  S
Zr4141     O4165   2.439       .  S
Zr4141     O4167   2.475       .  S
Zr4141     O4145   2.425       .  S
Zr4141     O4148   2.426       .  S
Zr4142     O4168   2.437       .  S
Zr4142     O4169   2.435       .  S
Zr4142     O4144   2.435       .  S
Zr4142     O4145   2.392       .  S
Zr4142     O4146   2.374       .  S
O4143      H4180   0.990       .  S
O4144      H4175   0.990       .  S
O4144      H4189   0.990       .  S
O4146      H4172   0.964       .  S
O4147     Zr4157   2.372       .  S
O4148     Zr4157   2.371       .  S
O4148      H4173   0.966       .  S
C4149      C4213   1.469       .  S
C4150      C4261   1.497       .  S
O4152      H4188   0.990       .  S
O4153      C4155   1.289       .  A
O4154      C4155   1.287       .  A
C4155      C4293   1.497       .  S
O4156     Zr4157   2.435       .  S
O4156      H4185   0.989       .  S
Zr4157     O4160   2.434       .  S
Zr4157     O4161   2.439       .  S
Zr4157     O4162   2.457       .  S
O4158      C4163   1.283       .  A
O4159      H4176   0.990       .  S
O4159      H4191   0.990       .  S
O4160      H4177   0.990       .  S
O4161      H4181   0.990       .  S
O4161      H4190   0.989       .  S
O4162      C4163   1.287       .  A
C4163      C4338   1.511       .  S
O4164      H4183   0.990       .  S
O4164      H4187   0.991       .  S
O4165      H4179   0.990       .  S
O4165      H4186   0.990       .  S
O4166      C4170   1.286       .  A
O4167      C4170   1.289       .  A
O4168      H4178   0.990       .  S
O4169      H4182   0.990       .  S
C4193      C4194   1.405       .  A
C4193      C4198   1.404       .  A
C4193      H4200   1.085       .  S
C4194      C4195   1.410       .  A
C4195      C4196   1.421       .  A
C4195      C4202   1.502       .  S
C4196      C4197   1.417       .  A
C4196      H4201   1.082       .  S
C4197      C4198   1.422       .  A
C4198      C4199   1.511       .  S
C4199      H4203   1.110       .  S
C4199      H4204   1.109       .  S
C4199      H4205   1.111       .  S
C4202      H4206   1.110       .  S
C4202      H4207   1.110       .  S
C4202      H4208   1.107       .  S
C4209      C4214   1.409       .  A
C4209      H4216   1.083       .  S
C4210      C4211   1.426       .  A
C4211      C4212   1.398       .  A
C4211      C4218   1.509       .  S
C4212      C4213   1.397       .  A
C4212      H4217   1.084       .  S
C4214      C4215   1.506       .  S
C4215      H4219   1.111       .  S
C4215      H4220   1.108       .  S
C4215      H4221   1.110       .  S
C4218      H4222   1.110       .  S
C4218      H4223   1.108       .  S
C4218      H4224   1.111       .  S
C4225      C4226   1.405       .  A
C4225      C4230   1.407       .  A
C4225      H4232   1.084       .  S
C4226      C4227   1.420       .  A
C4227      C4228   1.411       .  A
C4227      C4234   1.508       .  S
C4228      C4229   1.403       .  A
C4228      H4233   1.084       .  S
C4229      C4230   1.414       .  A
C4230      C4231   1.507       .  S
C4231      H4235   1.111       .  S
C4231      H4236   1.111       .  S
C4231      H4237   1.108       .  S
C4234      H4238   1.110       .  S
C4234      H4239   1.108       .  S
C4234      H4240   1.111       .  S
C4241      C4242   1.406       .  A
C4241      C4246   1.418       .  A
C4241      H4248   1.084       .  S
C4242      C4243   1.424       .  A
C4243      C4244   1.420       .  A
C4244      C4245   1.408       .  A
C4244      H4249   1.083   1_556  S
C4245      C4246   1.424       .  A
C4246      C4247   1.507       .  S
C4247      H4251   1.111       .  S
C4247      H4252   1.109       .  S
C4247      H4253   1.110       .  S
C4250      H4254   1.108       .  S
C4250      H4255   1.110       .  S
C4250      H4256   1.111       .  S
C4257      C4258   1.385       .  A
C4257      C4262   1.401       .  A
C4257      H4264   1.086       .  S
C4259      C4260   1.420       .  A
C4259      C4266   1.505       .  S
C4260      C4261   1.408       .  A
C4260      H4265   1.084       .  S
C4262      C4263   1.511       .  S
C4263      H4267   1.111       .  S
C4263      H4268   1.106       .  S
C4263      H4269   1.107       .  S
C4266      H4270   1.110       .  S
C4266      H4271   1.110       .  S
C4266      H4272   1.110       .  S
C4273      C4274   1.408       .  A
C4273      C4278   1.401       .  A
C4273      H4280   1.085       .  S
C4274      C4275   1.413       .  A
C4275      C4276   1.422       .  A
C4275      C4282   1.503       .  S
C4276      C4277   1.414       .  A
C4276      H4281   1.084       .  S
C4277      C4278   1.412       .  A
C4278      C4279   1.509       .  S
C4279      H4283   1.111       .  S
C4279      H4284   1.108       .  S
C4279      H4285   1.110       .  S
C4282      H4286   1.110       .  S
C4282      H4287   1.109       .  S
C4282      H4288   1.110       .  S
C4289      C4290   1.406       .  A
C4289      C4294   1.414       .  A
C4289      H4296   1.084       .  S
C4290      C4291   1.414       .  A
C4291      C4292   1.407       .  A
C4291      C4298   1.508       .  S
C4292      C4293   1.407       .  A
C4292      H4297   1.084       .  S
C4293      C4294   1.418       .  A
C4294      C4295   1.506       .  S
C4295      H4299   1.111       .  S
C4295      H4300   1.110       .  S
C4295      H4301   1.110       .  S
C4298      H4302   1.110       .  S
C4298      H4303   1.109       .  S
C4298      H4304   1.111       .  S
C4305      C4306   1.410       .  A
C4305      C4310   1.407       .  A
C4305      H4312   1.083       .  S
C4306      C4307   1.428       .  A
C4307      C4308   1.393       .  A
C4307      C4314   1.510       .  S
C4308      C4309   1.393       .  A
C4308      H4313   1.084       .  S
C4309      C4310   1.409       .  A
C4310      C4311   1.506       .  S
C4311      H4315   1.111       .  S
C4311      H4316   1.108       .  S
C4311      H4317   1.110       .  S
C4314      H4318   1.110       .  S
C4314      H4319   1.107       .  S
C4314      H4320   1.111       .  S
C4321      C4322   1.403       .  A
C4321      C4326   1.414       .  A
C4321      H4328   1.084       .  S
C4322      C4323   1.412       .  A
C4323      C4324   1.412       .  A
C4323      C4330   1.505   1_545  S
C4324      C4325   1.409       .  A
C4324      H4329   1.084   1_545  S
C4325      C4326   1.425       .  A
C4326      C4327   1.508       .  S
C4327      H4331   1.111       .  S
C4327      H4332   1.109       .  S
C4327      H4333   1.110       .  S
C4330      H4334   1.110   1_565  S
C4330      H4335   1.110       .  S
C4330      H4336   1.111       .  S
C4337      C4338   1.417       .  A
C4337      C4342   1.418       .  A
C4337      H4344   1.083       .  S
C4338      C4339   1.421       .  A
C4339      C4340   1.407       .  A
C4339      C4346   1.510       .  S
C4340      C4341   1.408       .  A
C4340      H4345   1.084       .  S
C4341      C4342   1.411       .  A
C4342      C4343   1.503       .  S
C4343      H4347   1.111       .  S
C4343      H4348   1.110       .  S
C4343      H4349   1.110       .  S
C4346      H4350   1.109       .  S
C4346      H4351   1.110       .  S
C4346      H4352   1.111       .  S
C4353      C4354   1.399       .  A
C4353      C4358   1.395       .  A
C4353      H4360   1.085       .  S
C4354      C4355   1.405       .  A
C4355      C4356   1.394       .  A
C4355      C4362   1.507       .  S
C4356      C4357   1.404       .  A
C4356      H4361   1.084       .  S
C4357      C4358   1.414       .  A
C4358      C4359   1.509       .  S
C4359      H4363   1.111       .  S
C4359      H4364   1.110       .  S
C4359      H4365   1.107       .  S
C4362      H4366   1.110       .  S
C4362      H4367   1.110       .  S
C4362      H4368   1.111       .  S
C4369      C4370   1.412       .  A
C4369      C4374   1.419       .  A
C4369      H4376   1.081       .  S
C4370      C4371   1.411       .  A
C4371      C4372   1.415       .  A
C4371      C4378   1.506       .  S
C4372      C4373   1.415       .  A
C4372      H4377   1.084       .  S
C4373      C4374   1.416       .  A
C4374      C4375   1.505       .  S
C4375      H4379   1.111       .  S
C4375      H4380   1.110       .  S
C4375      H4381   1.110       .  S
C4378      H4382   1.110   1_556  S
C4378      H4383   1.111       .  S
C4378      H4384   1.111       .  S
C4385      C4386   1.408       .  A
C4385      C4390   1.397       .  A
C4385      H4392   1.082       .  S
C4386      C4387   1.408       .  A
C4387      C4388   1.397       .  A
C4387      C4394   1.507       .  S
C4388      C4389   1.409       .  A
C4388      H4393   1.085       .  S
C4389      C4390   1.410       .  A
C4390      C4391   1.507       .  S
C4391      H4395   1.111       .  S
C4391      H4396   1.108       .  S
C4391      H4397   1.109       .  S
C4394      H4398   1.110       .  S
C4394      H4399   1.110       .  S
C4394      H4400   1.111       .  S
C4401      C4402   1.414       .  A
C4401      C4406   1.400       .  A
C4401      H4408   1.084       .  S
C4402      C4403   1.420   1_655  A
C4403      C4404   1.409       .  A
C4403      C4410   1.505       .  S
C4404      C4405   1.404   1_455  A
C4404      H4409   1.084       .  S
C4405      C4406   1.403       .  A
C4406      C4407   1.502       .  S
C4407      H4411   1.111       .  S
C4407      H4412   1.109       .  S
C4407      H4413   1.110       .  S
C4410      H4414   1.110       .  S
C4410      H4415   1.109       .  S
C4410      H4416   1.111       .  S
C4417      C4418   1.410       .  A
C4417      C4422   1.402       .  A
C4417      H4424   1.081       .  S
C4418      C4419   1.407       .  A
C4419      C4420   1.399       .  A
C4419      C4426   1.508       .  S
C4420      C4421   1.415       .  A
C4420      H4425   1.084       .  S
C4421      C4422   1.409       .  A
C4422      C4423   1.506       .  S
C4423      H4427   1.111       .  S
C4423      H4428   1.105       .  S
C4423      H4429   1.110       .  S
C4426      H4430   1.110       .  S
C4426      H4431   1.109       .  S
C4426      H4432   1.111       .  S
C4433      C4434   1.404       .  A
C4433      C4438   1.406       .  A
C4433      H4440   1.084       .  S
C4434      C4435   1.416       .  A
C4435      C4436   1.406       .  A
C4435      C4442   1.507       .  S
C4436      C4437   1.401       .  A
C4436      H4441   1.084       .  S
C4437      C4438   1.414       .  A
C4438      C4439   1.505       .  S
C4439      H4443   1.111       .  S
C4439      H4444   1.110       .  S
C4439      H4445   1.106       .  S
C4442      H4446   1.110       .  S
C4442      H4447   1.108       .  S
C4442      H4448   1.111       .  S
C4449      C4450   1.405       .  A
C4449      C4454   1.418       .  A
C4449      H4456   1.084       .  S
C4450      C4451   1.423       .  A
C4451      C4452   1.402       .  A
C4451      C4458   1.510       .  S
C4452      C4453   1.398       .  A
C4452      H4457   1.083       .  S
C4453      C4454   1.421       .  A
C4454      C4455   1.506       .  S
C4455      H4459   1.111       .  S
C4455      H4460   1.109       .  S
C4455      H4461   1.110       .  S
C4458      H4462   1.108       .  S
C4458      H4463   1.110       .  S
C4458      H4464   1.110       .  S
C4465      C4466   1.409       .  A
C4465      C4470   1.390       .  A
C4465      H4472   1.083       .  S
C4466      C4467   1.415       .  A
C4467      C4468   1.393       .  A
C4467      C4474   1.510       .  S
C4468      C4469   1.409       .  A
C4468      H4473   1.084       .  S
C4469      C4470   1.412       .  A
C4470      C4471   1.511       .  S
C4471      H4475   1.111       .  S
C4471      H4476   1.109       .  S
C4471      H4477   1.110       .  S
C4474      H4478   1.108       .  S
C4474      H4479   1.109   1_545  S
C4474      H4480   1.111   1_545  S
C4481      C4482   1.402       .  A
C4481      C4486   1.403       .  A
C4481      H4488   1.084       .  S
C4482      C4483   1.431       .  A
C4483      C4484   1.417       .  A
C4483      C4490   1.509       .  S
C4484      C4485   1.403       .  A
C4484      H4489   1.084       .  S
C4485      C4486   1.419       .  A
C4486      C4487   1.507       .  S
C4487      H4491   1.111       .  S
C4487      H4492   1.106       .  S
C4487      H4493   1.110       .  S
C4490      H4494   1.110       .  S
C4490      H4495   1.110       .  S
C4490      H4496   1.109       .  S
C4497      C4502   1.402       .  A
C4497      H4504   1.084       .  S
C4498      C4499   1.413   1_554  A
C4499      C4500   1.394       .  A
C4499      C4506   1.509       .  S
C4500      C4501   1.403   1_556  A
C4500      H4505   1.084       .  S
C4502      C4503   1.508       .  S
C4503      H4507   1.111       .  S
C4503      H4508   1.110       .  S
C4503      H4509   1.107       .  S
C4506      H4510   1.107       .  S
C4506      H4511   1.109       .  S
C4506      H4512   1.111       .  S
C4513      C4518   1.399       .  A
C4514      C4515   1.422       .  A
C4515      C4522   1.507       .  S
C4516      C4517   1.391       .  A
C4516      H4521   1.085       .  S
C4517      C4518   1.408       .  A
C4518      C4519   1.505       .  S
C4519      H4523   1.111       .  S
C4519      H4524   1.105       .  S
C4519      H4525   1.110       .  S
C4522      H4526   1.110       .  S
C4522      H4527   1.106       .  S
C4522      H4528   1.111       .  S
C4529      C4530   1.411       .  A
C4529      C4534   1.399       .  A
C4529      H4536   1.083       .  S
C4530      C4531   1.415       .  A
C4531      C4532   1.400       .  A
C4531      C4538   1.506       .  S
C4532      C4533   1.399       .  A
C4532      H4537   1.085       .  S
C4533      C4534   1.403       .  A
C4534      C4535   1.507       .  S
C4535      H4539   1.111       .  S
C4535      H4540   1.110       .  S
C4535      H4541   1.110       .  S
C4538      H4542   1.108       .  S
C4538      H4543   1.110       .  S
C4538      H4544   1.111       .  S
C4545      C4546   1.408       .  A
C4545      C4550   1.418       .  A
C4545      H4552   1.084       .  S
C4546      C4547   1.419       .  A
C4547      C4548   1.414       .  A
C4547      C4554   1.507       .  S
C4548      C4549   1.412       .  A
C4548      H4553   1.083       .  S
C4549      C4550   1.425       .  A
C4550      C4551   1.506       .  S
C4551      H4555   1.111       .  S
C4551      H4556   1.110       .  S
C4551      H4557   1.110       .  S
C4554      H4558   1.109       .  S
C4554      H4559   1.108       .  S
C4554      H4560   1.111       .  S
C4561      C4562   1.402       .  A
C4561      C4566   1.411       .  A
C4561      H4568   1.083       .  S
C4562      C4563   1.410       .  A
C4563      C4564   1.400       .  A
C4564      C4565   1.405       .  A
C4564      H4569   1.085       .  S
C4565      C4566   1.421       .  A
C4566      C4567   1.506       .  S
C4567      H4571   1.109       .  S
C4567      H4572   1.102       .  S
C4567      H4573   1.110       .  S
C4570      H4574   1.110       .  S
C4570      H4575   1.110       .  S
C4570      H4576   1.111       .  S
C4577      C4582   1.418       .  A
C4577      H4584   1.084   1_455  S
C4578      C4579   1.425       .  A
C4579      C4580   1.435       .  A
C4579      C4586   1.504       .  S
C4580      C4581   1.415       .  A
C4580      H4585   1.083       .  S
C4582      C4583   1.505       .  S
C4583      H4587   1.111       .  S
C4583      H4588   1.110       .  S
C4586      H4591   1.111       .  S
C4586      H4592   1.111       .  S
C4593      C4594   1.406       .  A
C4593      C4598   1.398       .  A
C4593      H4600   1.084       .  S
C4594      C4595   1.419       .  A
C4595      C4596   1.392       .  A
C4595      C4602   1.513       .  S
C4596      C4597   1.398       .  A
C4596      H4601   1.085       .  S
C4597      C4598   1.409       .  A
C4598      C4599   1.507       .  S
C4599      H4603   1.110       .  S
C4599      H4604   1.110       .  S
C4599      H4605   1.111       .  S
C4602      H4606   1.107       .  S
C4602      H4607   1.111       .  S
C4602      H4608   1.109       .  S
C4609      C4610   1.425       .  A
C4609      C4614   1.429       .  A
C4609      H4616   1.083       .  S
C4610      C4611   1.422       .  A
C4611      C4612   1.414       .  A
C4611      C4618   1.507       .  S
C4612      C4613   1.411       .  A
C4612      H4617   1.084       .  S
C4613      C4614   1.415       .  A
C4614      C4615   1.505       .  S
C4615      H4619   1.111       .  S
C4615      H4620   1.111   1_556  S
C4615      H4621   1.110       .  S
C4618      H4622   1.110       .  S
C4618      H4623   1.109       .  S
C4618      H4624   1.111       .  S
C4625      C4626   1.408       .  A
C4625      C4630   1.396       .  A
C4625      H4632   1.083       .  S
C4626      C4627   1.415       .  A
C4627      C4628   1.400       .  A
C4627      C4634   1.509       .  S
C4628      C4629   1.405       .  A
C4628      H4633   1.085       .  S
C4629      C4630   1.406       .  A
C4631      H4635   1.111       .  S
C4631      H4636   1.107       .  S
C4631      H4637   1.110       .  S
C4634      H4638   1.110       .  S
C4634      H4639   1.109       .  S
C4634      H4640   1.111       .  S
C4641      C4642   1.421       .  A
C4641      C4646   1.446       .  A
C4641      H4648   1.083       .  S
C4642      C4643   1.421       .  A
C4643      C4644   1.425       .  A
C4643      C4650   1.507       .  S
C4644      C4645   1.419       .  A
C4644      H4649   1.083       .  S
C4645      C4646   1.431       .  A
C4646      C4647   1.503       .  S
C4647      H4651   1.111       .  S
C4647      H4652   1.110       .  S
C4647      H4653   1.110       .  S
C4650      H4654   1.108       .  S
C4650      H4655   1.110       .  S
C4650      H4656   1.107       .  S
C4657      C4658   1.401       .  A
C4657      C4662   1.395       .  A
C4658      C4659   1.408       .  A
C4659      C4660   1.395       .  A
C4659      C4666   1.507       .  S
C4660      C4661   1.400       .  A
C4660      H4665   1.085       .  S
C4661      C4662   1.406       .  A
C4662      C4663   1.508       .  S
C4663      H4667   1.111       .  S
C4663      H4668   1.110       .  S
C4663      H4669   1.110       .  S
C4666      H4670   1.110       .  S
C4666      H4671   1.111       .  S
C4666      H4672   1.111       .  S
C4673      C4674   1.401       .  A
C4673      C4678   1.395       .  A
C4673      H4680   1.084       .  S
C4674      C4675   1.417       .  A
C4675      C4676   1.397       .  A
C4675      C4682   1.507       .  S
C4676      C4677   1.397       .  A
C4676      H4681   1.085       .  S
C4677      C4678   1.412       .  A
C4678      C4679   1.508       .  S
C4679      H4683   1.111       .  S
C4679      H4684   1.109       .  S
C4679      H4685   1.108       .  S
C4682      H4686   1.109       .  S
C4682      H4687   1.111       .  S
C4682      H4688   1.110       .  S
C4689      C4690   1.407       .  A
C4689      C4694   1.425       .  A
C4689      H4696   1.084   1_554  S
C4690      C4691   1.419       .  A
C4691      C4692   1.410       .  A
C4691      C4698   1.504       .  S
C4692      C4693   1.409       .  A
C4693      C4694   1.428       .  A
C4694      C4695   1.505       .  S
C4695      H4699   1.111       .  S
C4695      H4700   1.110       .  S
C4695      H4701   1.108   1_554  S
C4698      H4702   1.110       .  S
C4698      H4703   1.106   1_554  S
C4705      C4710   1.412       .  A
C4705      H4712   1.073       .  S
C4706      C4707   1.412   1_554  A
C4707      C4708   1.414   1_556  A
C4707      C4714   1.504       .  S
C4708      H4713   1.082   1_554  S
C4709      C4710   1.419       .  A
C4710      C4711   1.506       .  S
C4711      H4715   1.107       .  S
C4711      H4716   1.110       .  S
C4711      H4717   1.110       .  S
C4714      H4718   1.110       .  S
C4714      H4719   1.110       .  S
C4714      H4720   1.110       .  S
C4721      C4722   1.419   1_565  A
C4721      C4726   1.438       .  A
C4721      H4728   1.083       .  S
C4722      C4723   1.422       .  A
C4723      C4724   1.418       .  A
C4723      C4730   1.509       .  S
C4724      C4725   1.415       .  A
C4724      H4729   1.083       .  S
C4725      C4726   1.421   1_545  A
C4726      C4727   1.499       .  S
C4727      H4731   1.111       .  S
C4727      H4732   1.106   1_655  S
C4727      H4733   1.110       .  S
C4730      H4734   1.111       .  S
C4730      H4735   1.108       .  S
C4730      H4736   1.111       .  S
C4737      C4738   1.396       .  A
C4737      C4742   1.403       .  A
C4737      H4744   1.085       .  S
C4738      C4739   1.396       .  A
C4739      C4740   1.394       .  A
C4739      C4746   1.502       .  S
C4740      C4741   1.413       .  A
C4740      H4745   1.083       .  S
C4741      C4742   1.426       .  A
C4742      C4743   1.507       .  S
C4743      H4747   1.111       .  S
C4743      H4748   1.109       .  S
C4743      H4749   1.109       .  S
C4746      H4750   1.110       .  S
C4746      H4751   1.111       .  S
C4746      H4752   1.110       .  S
C4753      C4754   1.403       .  A
C4753      C4758   1.419       .  A
C4753      H4760   1.084       .  S
C4754      C4755   1.423       .  A
C4755      C4756   1.415       .  A
C4755      C4762   1.505       .  S
C4756      C4757   1.404       .  A
C4756      H4761   1.084       .  S
C4757      C4758   1.428       .  A
C4758      C4759   1.507       .  S
C4759      H4763   1.111       .  S
C4759      H4764   1.109       .  S
C4759      H4765   1.111       .  S
C4762      H4766   1.110       .  S
C4762      H4767   1.102       .  S
C4762      H4768   1.111       .  S
C4769      C4770   1.405       .  A
C4769      C4774   1.391       .  A
C4769      H4776   1.084       .  S
C4770      C4771   1.408       .  A
C4771      C4772   1.400       .  A
C4771      C4778   1.504       .  S
C4772      C4773   1.409       .  A
C4772      H4777   1.084       .  S
C4773      C4774   1.408       .  A
C4774      C4775   1.505       .  S
C4775      H4779   1.107       .  S
C4775      H4780   1.108       .  S
C4775      H4781   1.105       .  S
C4778      H4782   1.110       .  S
C4778      H4783   1.110       .  S
C4778      H4784   1.111       .  S
C4785      C4786   1.411       .  A
C4785      C4790   1.423       .  A
C4785      H4792   1.084       .  S
C4786      C4787   1.430   1_565  A
C4787      C4788   1.433   1_545  A
C4787      C4794   1.506       .  S
C4788      C4789   1.414       .  A
C4788      H4793   1.084   1_565  S
C4789      C4790   1.426       .  A
C4790      C4791   1.509       .  S
C4791      H4795   1.110       .  S
C4791      H4796   1.108       .  S
C4791      H4797   1.111       .  S
C4794      H4798   1.110       .  S
C4794      H4799   1.105       .  S
C4794      H4800   1.109       .  S
C4801      C4802   1.410       .  A
C4801      C4806   1.397       .  A
C4801      H4808   1.083       .  S
C4802      C4803   1.409       .  A
C4803      C4804   1.406       .  A
C4803      C4810   1.499       .  S
C4804      C4805   1.408       .  A
C4804      H4809   1.081       .  S
C4805      C4806   1.401       .  A
C4806      C4807   1.503       .  S
C4807      H4811   1.110       .  S
C4807      H4812   1.110       .  S
C4807      H4813   1.110       .  S
C4810      H4814   1.109       .  S
C4810      H4815   1.103       .  S
C4810      H4816   1.109       .  S
C4817      C4818   1.407       .  A
C4817      C4822   1.410       .  A
C4817      H4824   1.084       .  S
C4818      C4819   1.406       .  A
C4819      C4820   1.400       .  A
C4819      C4826   1.507       .  S
C4820      C4821   1.409       .  A
C4820      H4825   1.085       .  S
C4821      C4822   1.407       .  A
C4822      C4823   1.501       .  S
C4823      H4827   1.111       .  S
C4823      H4828   1.110       .  S
C4823      H4829   1.109       .  S
C4826      H4830   1.110       .  S
C4826      H4831   1.110       .  S
C4826      H4832   1.111       .  S
C4833      C4834   1.404       .  A
C4833      C4838   1.407       .  A
C4833      H4840   1.084   1_565  S
C4834      C4835   1.419       .  A
C4835      C4836   1.411       .  A
C4835      C4842   1.505       .  S
C4836      C4837   1.402       .  A
C4836      H4841   1.084       .  S
C4837      C4838   1.415       .  A
C4838      C4839   1.507   1_565  S
C4839      H4843   1.111       .  S
C4839      H4844   1.109       .  S
C4839      H4845   1.110   1_545  S
C4842      H4846   1.110       .  S
C4842      H4847   1.103       .  S
C4842      H4848   1.111       .  S
C4849      C4850   1.416       .  A
C4849      C4854   1.407       .  A
C4849      H4856   1.084       .  S
C4850      C4851   1.406       .  A
C4851      C4852   1.408       .  A
C4851      C4858   1.506       .  S
C4852      C4853   1.417       .  A
C4852      H4857   1.080       .  S
C4853      C4854   1.411       .  A
C4854      C4855   1.507       .  S
C4855      H4859   1.111       .  S
C4855      H4860   1.110       .  S
C4855      H4861   1.110       .  S
C4858      H4862   1.107       .  S
C4858      H4863   1.110       .  S
C4858      H4864   1.111       .  S
C4865      C4866   1.411       .  A
C4865      C4870   1.422       .  A
C4865      H4872   1.084       .  S
C4866      C4867   1.416       .  A
C4867      C4868   1.422   1_655  A
C4867      C4874   1.504   1_655  S
C4868      C4869   1.413   1_455  A
C4868      H4873   1.084       .  S
C4869      C4870   1.418       .  A
C4870      C4871   1.505       .  S
C4871      H4875   1.111       .  S
C4871      H4876   1.110       .  S
C4871      H4877   1.110       .  S
C4874      H4878   1.110       .  S
C4874      H4879   1.108       .  S
C4874      H4880   1.111       .  S
C4881      C4882   1.404       .  A
C4881      C4886   1.399       .  A
C4881      H4888   1.083       .  S
C4882      C4883   1.405   1_655  A
C4883      C4884   1.396       .  A
C4883      C4890   1.507       .  S
C4884      C4885   1.413   1_455  A
C4884      H4889   1.084       .  S
C4885      C4886   1.415       .  A
C4886      C4887   1.510       .  S
C4887      H4891   1.109       .  S
C4887      H4892   1.110       .  S
C4887      H4893   1.105       .  S
C4890      H4894   1.111       .  S
C4890      H4895   1.110       .  S
C4890      H4896   1.111       .  S
C4897      C4898   1.406       .  A
C4897      C4902   1.399       .  A
C4897      H4904   1.083       .  S
C4898      C4899   1.404       .  A
C4899      C4900   1.395       .  A
C4899      C4906   1.507       .  S
C4900      C4901   1.403       .  A
C4900      H4905   1.081       .  S
C4901      C4902   1.401       .  A
C4902      C4903   1.505       .  S
C4903      H4907   1.111       .  S
C4903      H4908   1.110       .  S
C4903      H4909   1.110       .  S
C4906      H4910   1.109       .  S
C4906      H4911   1.110       .  S
C4906      H4912   1.110       .  S
C4913      C4914   1.411       .  A
C4913      C4918   1.399       .  A
C4913      H4920   1.083       .  S
C4914      C4915   1.411       .  A
C4915      C4916   1.409       .  A
C4915      C4922   1.507       .  S
C4916      C4917   1.412       .  A
C4916      H4921   1.082       .  S
C4917      C4918   1.409       .  A
C4918      C4919   1.507       .  S
C4919      H4923   1.111       .  S
C4919      H4924   1.109       .  S
C4919      H4925   1.110       .  S
C4922      H4926   1.111       .  S
C4922      H4927   1.108       .  S
C4922      H4928   1.111       .  S
C4929      C4930   1.408       .  A
C4929      C4934   1.400       .  A
C4929      H4936   1.084       .  S
C4930      C4931   1.401       .  A
C4931      C4932   1.390       .  A
C4931      C4938   1.507       .  S
C4932      C4933   1.406       .  A
C4932      H4937   1.082       .  S
C4933      C4934   1.408       .  A
C4934      C4935   1.507       .  S
C4935      H4939   1.109       .  S
C4935      H4940   1.108       .  S
C4935      H4941   1.110       .  S
C4938      H4942   1.111       .  S
C4938      H4943   1.108       .  S
C4938      H4944   1.110       .  S
C4945      C4946   1.414   1_655  A
C4945      C4950   1.415   1_565  A
C4945      H4952   1.084       .  S
C4946      C4947   1.421       .  A
C4947      C4948   1.441   1_565  A
C4947      C4954   1.503       .  S
C4948      C4949   1.427   1_455  A
C4948      H4953   1.083       .  S
C4949      C4950   1.427       .  A
C4950      C4951   1.508       .  S
C4951      H4955   1.111   1_545  S
C4951      H4956   1.107       .  S
C4951      H4957   1.110       .  S
C4954      H4958   1.111       .  S
C4954      H4959   1.110       .  S
C4954      H4960   1.110       .  S
C4961      C4962   1.401   1_565  A
C4961      C4966   1.391       .  A
C4961      H4968   1.085       .  S
C4962      C4963   1.407   1_545  A
C4963      C4964   1.397       .  A
C4963      C4970   1.508   1_565  S
C4964      C4965   1.405       .  A
C4964      H4969   1.084       .  S
C4965      C4966   1.410       .  A
C4966      C4967   1.509       .  S
C4967      H4971   1.110       .  S
C4967      H4972   1.108       .  S
C4967      H4973   1.105       .  S
C4970      H4974   1.107       .  S
C4970      H4975   1.106       .  S
C4970      H4976   1.110   1_545  S
C4977      C4978   1.400       .  A
C4977      C4982   1.400       .  A
C4977      H4984   1.084       .  S
C4978      C4979   1.418       .  A
C4979      C4980   1.395       .  A
C4979      C4986   1.513       .  S
C4980      C4981   1.394       .  A
C4980      H4985   1.084       .  S
C4981      C4982   1.414       .  A
C4982      C4983   1.507       .  S
C4983      H4987   1.111       .  S
C4983      H4988   1.109       .  S
C4983      H4989   1.110       .  S
C4986      H4990   1.110       .  S
C4986      H4991   1.106       .  S
C4986      H4992   1.111       .  S
C4993      C4994   1.401       .  A
C4993      C4998   1.398       .  A
C4993      H5000   1.085       .  S
C4994      C4995   1.406       .  A
C4995      C4996   1.401       .  A
C4995      C5002   1.507       .  S
C4996      C4997   1.415       .  A
C4996      H5001   1.083       .  S
C4997      C4998   1.418       .  A
C4998      C4999   1.507       .  S
C4999      H5003   1.108       .  S
C4999      H5004   1.107       .  S
C4999      H5005   1.109       .  S
C5002      H5006   1.110       .  S
C5002      H5007   1.110       .  S
C5002      H5008   1.111       .  S
C5009      C5010   1.405       .  A
C5009      C5014   1.412       .  A
C5009      H5016   1.084       .  S
C5010      C5011   1.418   1_455  A
C5011      C5012   1.414       .  A
C5011      C5018   1.505       .  S
C5012      C5013   1.405   1_655  A
C5012      H5017   1.084       .  S
C5013      C5014   1.415       .  A
C5014      C5015   1.504       .  S
C5015      H5019   1.111       .  S
C5015      H5020   1.107       .  S
C5015      H5021   1.110       .  S
C5018      H5022   1.110       .  S
C5018      H5023   1.109       .  S
C5018      H5024   1.111       .  S
C5025      C5026   1.402       .  A
C5025      C5030   1.410       .  A
C5025      H5032   1.084       .  S
C5026      C5027   1.431       .  A
C5027      C5028   1.412       .  A
C5027      C5034   1.508       .  S
C5028      C5029   1.397       .  A
C5028      H5033   1.084       .  S
C5029      C5030   1.422       .  A
C5030      C5031   1.504       .  S
C5031      H5035   1.111       .  S
C5031      H5036   1.102       .  S
C5031      H5037   1.110       .  S
C5034      H5038   1.110       .  S
C5034      H5039   1.110       .  S
C5034      H5040   1.111       .  S
C5041      C5042   1.403       .  A
C5041      C5046   1.398       .  A
C5041      H5048   1.084       .  S
C5042      C5043   1.418       .  A
C5043      C5044   1.397       .  A
C5043      C5050   1.506       .  S
C5044      C5045   1.396       .  A
C5044      H5049   1.085       .  S
C5045      C5046   1.412       .  A
C5046      C5047   1.507       .  S
C5047      H5051   1.110       .  S
C5047      H5052   1.107       .  S
C5047      H5053   1.111       .  S
C5050      H5054   1.106       .  S
C5050      H5055   1.110       .  S
C5050      H5056   1.110       .  S
C5057      C5058   1.403       .  A
C5057      C5062   1.401       .  A
C5057      H5064   1.085       .  S
C5058      C5059   1.404       .  A
C5059      C5060   1.391       .  A
C5059      C5066   1.507       .  S
C5060      C5061   1.403       .  A
C5060      H5065   1.083       .  S
C5061      C5062   1.414       .  A
C5062      C5063   1.509       .  S
C5063      H5067   1.110       .  S
C5063      H5068   1.104       .  S
C5063      H5069   1.111       .  S
C5066      H5070   1.110       .  S
C5066      H5071   1.109       .  S
C5066      H5072   1.111       .  S
C5073      C5074   1.416       .  A
C5073      C5078   1.430       .  A
C5073      H5080   1.083       .  S
C5074      C5075   1.433       .  A
C5075      C5076   1.417       .  A
C5076      C5077   1.407   1_565  A
C5077      C5078   1.420   1_545  A
C5078      C5079   1.503   1_565  S
C5079      H5083   1.111   1_545  S
C5079      H5084   1.110       .  S
C5079      H5085   1.110       .  S
C5082      H5087   1.110       .  S
C5082      H5088   1.111       .  S
C5089      C5090   1.406       .  A
C5089      C5094   1.409       .  A
C5089      H5096   1.084       .  S
C5090      C5091   1.406       .  A
C5091      C5092   1.402       .  A
C5091      C5098   1.508       .  S
C5092      C5093   1.413       .  A
C5092      H5097   1.084       .  S
C5093      C5094   1.415       .  A
C5094      C5095   1.507       .  S
C5095      H5099   1.111       .  S
C5095      H5100   1.109       .  S
C5095      H5101   1.109       .  S
C5098      H5102   1.110       .  S
C5098      H5103   1.110       .  S
C5098      H5104   1.111       .  S
C5105      C5106   1.403       .  A
C5105      C5110   1.397       .  A
C5105      H5112   1.084       .  S
C5107      C5114   1.507       .  S
C5108      C5109   1.399       .  A
C5108      H5113   1.085       .  S
C5109      C5110   1.414       .  A
C5110      C5111   1.508       .  S
C5111      H5115   1.111       .  S
C5111      H5116   1.104       .  S
C5111      H5117   1.110       .  S
C5114      H5118   1.110       .  S
C5114      H5119   1.109       .  S
C5114      H5120   1.111       .  S
C5121      C5122   1.401       .  A
C5121      C5126   1.418       .  A
C5121      H5128   1.085       .  S
C5122      C5123   1.425       .  A
C5123      C5124   1.426       .  A
C5123      C5130   1.505       .  S
C5124      C5125   1.414       .  A
C5124      H5129   1.084       .  S
C5125      C5126   1.439       .  A
C5126      C5127   1.508       .  S
C5127      H5131   1.111       .  S
C5127      H5132   1.109       .  S
C5127      H5133   1.109       .  S
C5130      H5134   1.110       .  S
C5130      H5135   1.105       .  S
C5130      H5136   1.110       .  S
C5137      C5138   1.394       .  A
C5137      H5144   1.085       .  S
C5138      C5139   1.409       .  A
C5139      C5146   1.503       .  S
C5140      C5141   1.397       .  A
C5140      H5145   1.084       .  S
C5141      C5142   1.405       .  A
C5142      C5143   1.484       .  S
C5143      H5147   1.111       .  S
C5143      H5148   1.107       .  S
C5143      H5149   1.108       .  S
C5146      H5150   1.110       .  S
C5146      H5151   1.110       .  S
C5146      H5152   1.110       .  S
C5153      C5154   1.411       .  A
C5153      C5158   1.403       .  A
C5153      H5160   1.083       .  S
C5154      C5155   1.401       .  A
C5155      C5156   1.400       .  A
C5156      C5157   1.401       .  A
C5156      H5161   1.072       .  S
C5157      C5158   1.403       .  A
C5158      C5159   1.504       .  S
C5159      H5163   1.111       .  S
C5159      H5164   1.110       .  S
C5159      H5165   1.110       .  S
C5162      H5166   1.102   1_554  S
C5162      H5167   1.107       .  S
C5169      C5170   1.399       .  A
C5169      C5174   1.397       .  A
C5169      H5176   1.085       .  S
C5170      C5171   1.411       .  A
C5171      C5172   1.396       .  A
C5171      C5178   1.509       .  S
C5172      C5173   1.404       .  A
C5172      H5177   1.084       .  S
C5173      C5174   1.419       .  A
C5174      C5175   1.509       .  S
C5175      H5179   1.111       .  S
C5175      H5180   1.110       .  S
C5175      H5181   1.105       .  S
C5178      H5182   1.109       .  S
C5178      H5183   1.110       .  S
C5178      H5184   1.111       .  S
C5185      C5186   1.407       .  A
C5185      C5190   1.410       .  A
C5185      H5192   1.084       .  S
C5186      C5187   1.421       .  A
C5187      C5188   1.416       .  A
C5187      C5194   1.507       .  S
C5188      C5189   1.409       .  A
C5188      H5193   1.084       .  S
C5189      C5190   1.419       .  A
C5190      C5191   1.506       .  S
C5191      H5195   1.111       .  S
C5191      H5196   1.109       .  S
C5191      H5197   1.108       .  S
C5194      H5198   1.110       .  S
C5194      H5199   1.110       .  S
C5194      H5200   1.111       .  S
C5201      C5202   1.403       .  A
C5201      C5206   1.410       .  A
C5201      H5208   1.084       .  S
C5202      C5203   1.417       .  A
C5203      C5204   1.407       .  A
C5203      C5210   1.507       .  S
C5204      C5205   1.403       .  A
C5204      H5209   1.084       .  S
C5205      C5206   1.421       .  A
C5207      H5211   1.109       .  S
C5207      H5213   1.110       .  S
C5210      H5214   1.108       .  S
C5210      H5215   1.110       .  S
C5210      H5216   1.111       .  S
