geometry optimzed in LAMMPS
_audit_creation_date              2020-11-30 
_audit_creation_method            'lammps2cif' 
_symmetry_space_group_name_H-M    'P1' 
_symmetry_Int_Tables_number       1 
_symmetry_cell_setting            triclinic 
loop_ 
_symmetry_equiv_pos_as_xyz 
  x,y,z 
_cell_length_a                    28.68632719 
_cell_length_b                    56.568033169588176 
_cell_length_c                    23.36273305812951 
_cell_angle_alpha                 90.16678182451027 
_cell_angle_beta                  89.55700681873206 
_cell_angle_gamma                 89.69749971401271 
loop_ 
_atom_site_label 
_atom_site_type_symbol 
_atom_site_fract_x 
_atom_site_fract_y 
_atom_site_fract_z 
_atom_site_charge 
C1          C  0.15865246  0.57720657  0.10788107     0.87600
C2          C  0.17199835  0.56255814  0.05433565    -0.52600
C3          C  0.15398255  0.54030321  0.05432996     0.10500
C4          C  0.12479594  0.53433734  0.10808194     0.21500
C5          C  0.10505926  0.57613113  0.11043088    -0.53400
C6          C  0.08757053  0.55381712  0.11051915     0.10600
C7          C  0.17489679  0.56201106  0.15854275    -0.52900
C8          C  0.15647105  0.53988095  0.15935761     0.11200
H9          H  0.19255950  0.56891224  0.01856272     0.15700
H10         H  0.11014885  0.51618603  0.10826199     0.01400
H11         H  0.08287177  0.59175664  0.11231183     0.16000
H12         H  0.19616261  0.56879101  0.19314015     0.15800
C13         C  0.15265246  0.46326396  0.35875667     0.87600
C14         C  0.16768380  0.47813560  0.41055129    -0.52600
C15         C  0.15084304  0.50069963  0.41033685     0.10500
C16         C  0.12130768  0.50678440  0.35741882     0.21500
C17         C  0.09923017  0.46538881  0.35802393    -0.53400
C18         C  0.08304730  0.48800189  0.35763774     0.10600
C19         C  0.16885026  0.47757769  0.30617631    -0.52900
C20         C  0.15201992  0.50012726  0.30525392     0.11200
H21         H  0.18751690  0.47098804  0.44602202     0.15700
H22         H  0.10764179  0.52520359  0.35692715     0.01400
H23         H  0.07611687  0.45021796  0.35872093     0.16000
H24         H  0.18983182  0.47077170  0.27108746     0.15800
C25         C  0.87361960  0.46324476  0.36801134     0.87600
C26         C  0.85796030  0.47774956  0.31544071    -0.52600
C27         C  0.87469603  0.50031591  0.31488645     0.10500
C28         C  0.90460178  0.50667043  0.36717236     0.21500
C29         C  0.92706081  0.46525403  0.36717010    -0.53400
C30         C  0.94299704  0.48782483  0.36654240     0.10600
C31         C  0.85779705  0.47809055  0.42002104    -0.52900
C32         C  0.87466078  0.50056947  0.42019898     0.11200
H33         H  0.83773178  0.47093554  0.28017556     0.15700
H34         H  0.91817046  0.52503867  0.36685339     0.01400
H35         H  0.95034447  0.45002384  0.36638209     0.16000
H36         H  0.83778601  0.47091997  0.45556250     0.15800
C37         C  0.87754460  0.57965082  0.12015549     0.87600
C38         C  0.86246590  0.56507562  0.17289062    -0.52600
C39         C  0.87888573  0.54238124  0.17229059     0.10500
C40         C  0.90828628  0.53600375  0.11873316     0.21500
C41         C  0.93090477  0.57730263  0.11847554    -0.53400
C42         C  0.94685834  0.55466156  0.11776841     0.10600
C43         C  0.86072000  0.56508061  0.06857769    -0.52900
C44         C  0.87745543  0.54248378  0.06715963     0.11200
H45         H  0.84175863  0.57179317  0.20838946     0.15700
H46         H  0.92171520  0.51753976  0.11804792     0.01400
H47         H  0.95418955  0.59240663  0.11765119     0.16000
H48         H  0.83996310  0.57246075  0.03420799     0.15800
In49       In  0.18309891  0.31532684  0.36684187     1.36900
C50         C  0.09197596  0.30944909  0.36862124     0.78700
O51         O  0.20240531  0.29485909  0.44461409    -0.59800
O52         O  0.25576286  0.31406141  0.40152413    -0.50700
C53         C  0.21407003  0.28655708  0.28672405     0.71400
O54         O  0.18756509  0.27968641  0.32638254    -0.45500
C55         C  0.18412377  0.36208640  0.36876426     0.76100
O56         O  0.11402980  0.31431177  0.32335079    -0.57400
O57         O  0.17506412  0.34991993  0.41256966    -0.47500
O58         O  0.11643501  0.30723878  0.41290407    -0.53800
C59         C  0.24507921  0.29975392  0.44053366     0.86200
O60         O  0.22201871  0.30845796  0.28534916    -0.55700
O61         O  0.19397122  0.35022746  0.32444240    -0.59000
In62       In  0.35905916  0.22849549  0.11615060     1.36900
C63         C  0.45054001  0.23379723  0.12144828     0.78700
O64         O  0.33905295  0.25132700  0.19013215    -0.59800
O65         O  0.28702412  0.22921381  0.15372894    -0.50700
C66         C  0.32587547  0.25713382  0.03745217     0.71400
O67         O  0.34966082  0.26449149  0.07879855    -0.45500
C68         C  0.35574363  0.18152780  0.11780924     0.76100
O69         O  0.42938731  0.23190016  0.07460524    -0.57400
O70         O  0.36222889  0.19386593  0.16207316    -0.47500
O71         O  0.42504773  0.23339699  0.16556491    -0.53800
C72         C  0.29680955  0.24541037  0.18861456     0.86200
O73         O  0.32263104  0.23494697  0.03314143    -0.55700
O74         O  0.34940809  0.19332027  0.07266659    -0.59000
In75       In  0.85913574  0.31467652  0.37589691     1.36900
C76         C  0.95063234  0.30932746  0.37253494     0.78700
O77         O  0.85472127  0.27863625  0.33748209    -0.59800
O78         O  0.81736040  0.30693110  0.29820647    -0.50700
C79         C  0.79979113  0.29842311  0.45242780     0.71400
O80         O  0.84314336  0.29519040  0.45685367    -0.45500
C81         C  0.85259155  0.36147905  0.37673255     0.76100
O82         O  0.92737269  0.30708967  0.41817070    -0.57400
O83         O  0.84654461  0.34929363  0.33213195    -0.47500
O84         O  0.92725996  0.31406661  0.32854841    -0.53800
C85         C  0.82596953  0.28506786  0.30015036     0.86200
O86         O  0.78723998  0.31157066  0.41203196    -0.55700
O87         O  0.86143494  0.34960902  0.42101557    -0.59000
In88       In  0.68359610  0.22835905  0.12826219     1.36900
C89         C  0.59204107  0.23374095  0.12663625     0.78700
O90         O  0.69012829  0.26461783  0.09184488    -0.59800
O91         O  0.72300057  0.23592188  0.04761729    -0.50700
C92         C  0.74309899  0.24399725  0.20418070     0.71400
O93         O  0.69998427  0.24808681  0.20841481    -0.45500
C94         C  0.68758605  0.18152922  0.12828429     0.76100
O95         O  0.61529319  0.23618226  0.17180463    -0.57400
O96         O  0.69833999  0.19368092  0.08501732    -0.47500
O97         O  0.61550076  0.22896022  0.08223371    -0.53800
C98         C  0.71641064  0.25793066  0.05153284     0.86200
O99         O  0.75525869  0.23017622  0.16448962    -0.55700
O100        O  0.67651969  0.19344297  0.17210449    -0.59000
C101        C  0.38095171  0.96403910  0.36638221     0.87600
C102        C  0.36565424  0.97861089  0.31370401    -0.52600
C103        C  0.38248096  0.00117684  0.31321514     0.10500
C104        C  0.41228821  0.00744222  0.36575650     0.21500
C105        C  0.43443166  0.96594115  0.36594331    -0.53400
C106        C  0.45057047  0.98850250  0.36554310     0.10600
C107        C  0.36507572  0.97893278  0.41825576    -0.52900
C108        C  0.38210505  0.00136646  0.41860328     0.11200
H109        H  0.34532922  0.97186435  0.27845209     0.15700
H110        H  0.42598333  0.02578602  0.36563887     0.01400
H111        H  0.45757927  0.95066124  0.36584097     0.16000
H112        H  0.34490724  0.97179562  0.45370759     0.15800
C113        C  0.38271198  0.07945101  0.11462907     0.87600
C114        C  0.36722652  0.06539788  0.16789053    -0.52600
C115        C  0.38330061  0.04263010  0.16889993     0.10500
C116        C  0.41257757  0.03561501  0.11573932     0.21500
C117        C  0.43605451  0.07678246  0.11304327    -0.53400
C118        C  0.45143430  0.05402540  0.11380491     0.10600
C119        C  0.36609812  0.06449796  0.06333653    -0.52900
C120        C  0.38226060  0.04179347  0.06360230     0.11200
H121        H  0.34766030  0.07321520  0.20322292     0.14100
H122        H  0.42567785  0.01708984  0.11614491     0.01400
H123        H  0.45972448  0.09172277  0.11162222     0.16000
H124        H  0.34585063  0.07108833  0.02784654     0.15800
C125        C  0.66181954  0.96546138  0.36256829     0.87600
C126        C  0.67641295  0.98010903  0.41505126    -0.52600
C127        C  0.65837771  0.00245142  0.41606070     0.10500
C128        C  0.62846489  0.00860666  0.36346815     0.21500
C129        C  0.60833645  0.96695843  0.36228982    -0.53400
C130        C  0.59109197  0.98937762  0.36279772     0.10600
C131        C  0.67736899  0.98043219  0.31080962    -0.52900
C132        C  0.65936844  0.00276493  0.31090035     0.11200
H133        H  0.69690393  0.97300623  0.44999155     0.15700
H134        H  0.61393076  0.02685896  0.36386253     0.01400
H135        H  0.58597090  0.95150143  0.36197871     0.16000
H136        H  0.69919962  0.97414558  0.27586808     0.15800
C137        C  0.65887475  0.08018325  0.11352477     0.87600
C138        C  0.67549365  0.06589043  0.06062600    -0.52600
C139        C  0.66022359  0.04306321  0.06019331     0.10500
C140        C  0.63064567  0.03627236  0.11298995     0.21500
C141        C  0.60556540  0.07732401  0.11322086    -0.53400
C142        C  0.59106647  0.05448850  0.11315007     0.10600
C143        C  0.67527931  0.06574798  0.16524982    -0.52900
C144        C  0.65999756  0.04301851  0.16556606     0.11200
H145        H  0.69448128  0.07311170  0.02453512     0.15700
H146        H  0.61829118  0.01768180  0.11290920     0.01400
H147        H  0.58132202  0.09216280  0.11321783     0.16000
H148        H  0.69439637  0.07339261  0.20070175     0.15800
In149      In  0.19289205  0.72456224  0.12545985     1.36900
C150        C  0.10099695  0.72920439  0.12186352     0.78700
O151        O  0.20126910  0.76034118  0.08713365    -0.59800
O152        O  0.24161211  0.73182671  0.05252878    -0.50700
C153        C  0.24611937  0.74165996  0.20673490     0.71400
O154        O  0.20362744  0.74710836  0.20269423    -0.45500
C155        C  0.19632419  0.67777921  0.12104888     0.76100
O156        O  0.12298021  0.72804431  0.16826728    -0.57400
O157        O  0.20213213  0.69041178  0.07710969    -0.47500
O158        O  0.12587598  0.72839029  0.07717801    -0.53800
C159        C  0.23308705  0.75372952  0.05327174     0.86200
O160        O  0.26025274  0.72565581  0.17318665    -0.55700
O161        O  0.19107389  0.68920412  0.16712746    -0.59000
In162      In  0.36017491  0.81553344  0.37659505     1.36900
C163        C  0.45232598  0.81223000  0.36811249     0.78700
O164        O  0.35535719  0.77904561  0.33991458    -0.59800
O165        O  0.31595269  0.80662963  0.30106491    -0.50700
C166        C  0.30510251  0.79863091  0.45713774     0.71400
O167        O  0.34860954  0.79530655  0.45760235    -0.45500
C168        C  0.35255386  0.86244182  0.37775289     0.76100
O169        O  0.43082279  0.80936609  0.41483742    -0.57400
O170        O  0.34489604  0.85018248  0.33360644    -0.47500
O171        O  0.42686449  0.81640264  0.32555705    -0.53800
C172        C  0.32529686  0.78483968  0.30355081     0.86200
O173        O  0.29038321  0.81232205  0.41888749    -0.55700
O174        O  0.36222463  0.85055315  0.42176696    -0.59000
In175      In  0.86685493  0.72843833  0.11570712     1.36900
C176        C  0.95904108  0.73098355  0.11792365     0.78700
O177        O  0.86263075  0.76349282  0.15992602    -0.59800
O178        O  0.81921146  0.73557151  0.18988792    -0.50700
C179        C  0.81253129  0.74769381  0.03799713     0.71400
O180        O  0.85562994  0.75184741  0.03979482    -0.45500
C181        C  0.85858950  0.68169786  0.11512542     0.76100
O182        O  0.93648141  0.73111834  0.07183022    -0.57400
O183        O  0.85496919  0.69388595  0.16029906    -0.47500
O184        O  0.93461777  0.72996909  0.16293425    -0.53800
C185        C  0.82996441  0.75713139  0.19262387     0.86200
O186        O  0.79810806  0.73222060  0.07226238    -0.55700
O187        O  0.86548057  0.69355768  0.07022734    -0.59000
In188      In  0.68646626  0.81724646  0.36324314     1.36900
C189        C  0.59439949  0.81287306  0.36177112     0.78700
O190        O  0.69206205  0.78148058  0.40266560    -0.59800
O191        O  0.72917157  0.80997684  0.44090346    -0.50700
C192        C  0.74569196  0.79949241  0.28790329     0.71400
O193        O  0.70225414  0.79651553  0.28372692    -0.45500
C194        C  0.69171565  0.86405659  0.36522842     0.76100
O195        O  0.61862031  0.81296113  0.31646817    -0.57400
O196        O  0.68830758  0.85181909  0.41009354    -0.47500
O197        O  0.61713574  0.81455890  0.40747305    -0.53800
C198        C  0.72090176  0.78809377  0.43966425     0.86200
O199        O  0.75840000  0.81327078  0.32714271    -0.55700
O200        O  0.69417358  0.85222304  0.31946511    -0.59000
C201        C  0.77009357  0.75858296  0.50158569    -0.12200
C202        C  0.74532193  0.77162867  0.47482938    -0.13700
C203        C  0.77856162  0.78659052  0.25353087    -0.12200
C204        C  0.80427830  0.77360659  0.22720963    -0.13700
C205        C  0.50232951  0.81128672  0.36390411    -0.12200
C206        C  0.54438231  0.81145897  0.36171286    -0.13700
C207        C  0.05107964  0.73091305  0.12011479    -0.12200
C208        C  0.00906337  0.73145870  0.11904585    -0.13700
C209        C  0.25952590  0.77018406  0.02034374    -0.12200
C210        C  0.28406086  0.78333581  0.99356558    -0.13700
C211        C  0.27698614  0.75439853  0.24319277    -0.12200
C212        C  0.30111239  0.76768556  0.27004902    -0.13700
C213        C  0.66083064  0.01707716  0.46689577    -0.12200
C214        C  0.66324450  0.02855681  0.00907658    -0.13700
C215        C  0.66275906  0.01758355  0.26070611    -0.12200
C216        C  0.66307054  0.02870556  0.21660697    -0.13700
C217        C  0.66973142  0.92664034  0.41465653    -0.12200
C218        C  0.67744620  0.93969590  0.36422187     0.09900
C219        C  0.69261736  0.92743004  0.31477678    -0.12200
C220        C  0.69912189  0.90293883  0.31577444    -0.12200
C221        C  0.69058224  0.89010549  0.36598475     0.09900
C222        C  0.67680468  0.90222897  0.41574056    -0.12200
H223        H  0.65640301  0.93523133  0.45293660     0.13900
H224        H  0.69711289  0.93616871  0.27418267     0.13900
H225        H  0.70927779  0.89392544  0.27661725     0.13900
H226        H  0.66932765  0.89270538  0.45487300     0.13900
C227        C  0.50041416  0.04859486  0.11312630    -0.12200
C228        C  0.54233516  0.04876890  0.11297756    -0.13700
C229        C  0.49971182  0.99345291  0.36443214    -0.12200
C230        C  0.54166802  0.99381246  0.36347610    -0.13700
C231        C  0.37941769  0.02796754  0.21968999    -0.12200
C232        C  0.37913728  0.01616194  0.26295100    -0.13700
C233        C  0.37946520  0.01594777  0.46962100    -0.12200
C234        C  0.37915067  0.02700268  0.01313666    -0.13700
C235        C  0.37791713  0.92545952  0.42035796    -0.12200
C236        C  0.36630377  0.93814003  0.37053232     0.09900
C237        C  0.34583309  0.92564149  0.32493413    -0.12200
C238        C  0.33942957  0.90114162  0.32825416    -0.12200
C239        C  0.35288177  0.88858686  0.37722583     0.09900
C240        C  0.37091824  0.90109831  0.42387688    -0.12200
H241        H  0.39416798  0.93435490  0.45608422     0.13900
H242        H  0.33659841  0.93420227  0.28543930     0.13900
H243        H  0.32540625  0.89188966  0.29162311     0.13900
H244        H  0.38174160  0.89189890  0.46217654     0.13900
C245        C  0.66190059  0.14335834  0.17023291    -0.12200
C246        C  0.68572415  0.15550914  0.12694394     0.09900
C247        C  0.70446152  0.14275531  0.08049274    -0.12200
C248        C  0.69794097  0.11831260  0.07625198    -0.12200
C249        C  0.67194445  0.10618814  0.11823370     0.09900
C250        C  0.65505438  0.11905653  0.16586580    -0.12200
H251        H  0.64695714  0.15276934  0.20647041     0.13900
H252        H  0.72332608  0.15177375  0.04675065     0.13900
H253        H  0.71247686  0.10942729  0.03931302     0.13900
H254        H  0.63507695  0.11030332  0.19907399     0.13900
C255        C  0.73990552  0.27433497  0.01526879    -0.12200
C256        C  0.76413679  0.28709380  0.98697392    -0.13700
C257        C  0.77626480  0.25587445  0.23889713    -0.12200
C258        C  0.80169648  0.26849779  0.26552985    -0.13700
C259        C  0.34206774  0.14213032  0.07172959    -0.12200
C260        C  0.35738139  0.15541709  0.11866920     0.09900
C261        C  0.37709398  0.14362417  0.16537983    -0.12200
C262        C  0.38317893  0.11912522  0.16418077    -0.12200
C263        C  0.36916966  0.10562276  0.11662089     0.09900
C264        C  0.34757259  0.11751555  0.07075343    -0.12200
H265        H  0.32667351  0.15083618  0.03516389     0.13900
H266        H  0.38951802  0.15344199  0.20204061     0.13900
H267        H  0.40043150  0.11071008  0.19988083     0.13900
H268        H  0.33636965  0.10837565  0.03282048     0.13900
C269        C  0.50027280  0.23559068  0.12433991    -0.12200
C270        C  0.54222170  0.23558564  0.12592662    -0.13700
C271        C  0.00037590  0.30733260  0.37101904    -0.12200
C272        C  0.04230859  0.30734630  0.36990129    -0.13700
C273        C  0.30353477  0.27562332  0.50333051    -0.12200
C274        C  0.27915466  0.28836063  0.47526242    -0.13700
C275        C  0.23694042  0.27031119  0.24904384    -0.12200
C276        C  0.26213432  0.25755980  0.22155353    -0.13700
C277        C  0.84924188  0.61853200  0.16670368    -0.12200
C278        C  0.86380871  0.60570824  0.11784342     0.09900
C279        C  0.87306472  0.61834545  0.06713120    -0.12200
C280        C  0.86912898  0.64292348  0.06555654    -0.12200
C281        C  0.85669653  0.65562633  0.11498933     0.09900
C282        C  0.84580921  0.64320661  0.16519667    -0.12200
H283        H  0.84297786  0.61000762  0.20723054     0.13900
H284        H  0.88552892  0.60923682  0.02911314     0.13900
H285        H  0.87795522  0.65204874  0.02627882     0.13900
H286        H  0.83623154  0.65263440  0.20399076     0.13900
C287        C  0.87210657  0.51528839  0.47101466    -0.12200
C288        C  0.87368913  0.52799158  0.01614685    -0.13700
C289        C  0.87221610  0.51507309  0.26436538    -0.12200
C290        C  0.87380268  0.52702772  0.22150595    -0.13700
C291        C  0.84086399  0.42461045  0.32556568    -0.12200
C292        C  0.85971694  0.43730070  0.37190450     0.09900
C293        C  0.87185395  0.42468281  0.42160541    -0.12200
C294        C  0.86731176  0.40017912  0.42415269    -0.12200
C295        C  0.85117541  0.38754199  0.37670144     0.09900
C296        C  0.83687084  0.39998462  0.32795991    -0.12200
H297        H  0.83135489  0.43314355  0.28613386     0.13900
H298        H  0.88700204  0.43375082  0.45781523     0.13900
H299        H  0.87855941  0.39103171  0.46234051     0.13900
H300        H  0.82404177  0.39059470  0.29085752     0.13900
C301        C  0.99200805  0.49282283  0.36309795    -0.12200
C302        C  0.03388539  0.49297915  0.35993259    -0.13700
C303        C  0.15356204  0.42456109  0.41162834    -0.12200
C304        C  0.16734535  0.43743417  0.36285215     0.09900
C305        C  0.19029032  0.42523868  0.31801591    -0.12200
C306        C  0.19707512  0.40082115  0.32090268    -0.12200
C307        C  0.18161771  0.38806970  0.36868772     0.09900
C308        C  0.16079934  0.40020430  0.41465479    -0.12200
H309        H  0.13552944  0.43331656  0.44672700     0.13900
H310        H  0.20158933  0.43392080  0.27942515     0.13900
H311        H  0.21337819  0.39180838  0.28494325     0.13900
H312        H  0.14841302  0.39075263  0.45199616     0.13900
C313        C  0.03811525  0.54954447  0.11328833    -0.12200
C314        C  0.99611823  0.54960443  0.11552362    -0.13700
C315        C  0.15738619  0.52521137  0.00430529    -0.12200
C316        C  0.15428136  0.51570516  0.46036273    -0.13700
C317        C  0.15824210  0.52554273  0.21038425    -0.12200
C318        C  0.15669576  0.51458161  0.25464713    -0.13700
C319        C  0.16646116  0.61539336  0.16242292    -0.12200
C320        C  0.17514430  0.60274508  0.11141006     0.09900
C321        C  0.19449603  0.61501205  0.06446630    -0.12200
C322        C  0.20312499  0.63930649  0.06811367    -0.12200
C323        C  0.19311736  0.65178564  0.11875117     0.09900
C324        C  0.17578621  0.63948360  0.16625205    -0.12200
H325        H  0.15088124  0.60670928  0.19907676     0.13900
H326        H  0.20112413  0.60649758  0.02387638     0.13900
H327        H  0.21632068  0.64846506  0.03075169     0.13900
H328        H  0.16737398  0.64869097  0.20574307     0.13900
C329        C  0.15886495  0.57816036  0.61016245     0.87600
C330        C  0.17241742  0.56371770  0.55630191    -0.52600
C331        C  0.15401792  0.54152882  0.55545401     0.10500
C332        C  0.12461210  0.53536296  0.60884375     0.21500
C333        C  0.10523991  0.57717143  0.61184110    -0.53400
C334        C  0.08758738  0.55490962  0.61116492     0.10600
C335        C  0.17449376  0.56270728  0.66071261    -0.52900
C336        C  0.15596683  0.54057000  0.66069494     0.11200
H337        H  0.19254731  0.57032455  0.52044019     0.15700
H338        H  0.10974403  0.51725883  0.60830834     0.01400
H339        H  0.08312001  0.59282852  0.61330448     0.16000
H340        H  0.19561822  0.56929739  0.69564880     0.15800
C341        C  0.15455342  0.46191886  0.85705295     0.87600
C342        C  0.17164681  0.47652190  0.90847867    -0.52600
C343        C  0.15525370  0.49919421  0.90960429     0.10500
C344        C  0.12453189  0.50569956  0.85809308     0.21500
C345        C  0.10118161  0.46451762  0.85895788    -0.53400
C346        C  0.08571804  0.48726419  0.85974968     0.10600
C347        C  0.16962138  0.47632667  0.80405509    -0.52900
C348        C  0.15347310  0.49905539  0.80439191     0.11200
H349        H  0.19192345  0.46905023  0.94316878     0.15700
H350        H  0.11140314  0.52422146  0.85864090     0.01400
H351        H  0.07759674  0.44954432  0.86039016     0.16000
H352        H  0.18962193  0.46943875  0.76817603     0.15800
C353        C  0.87537907  0.46490420  0.86852428     0.87600
C354        C  0.86133701  0.47957138  0.81561070    -0.52600
C355        C  0.87887885  0.50194078  0.81541196     0.10500
C356        C  0.90787467  0.50807427  0.86876087     0.21500
C357        C  0.92883496  0.46643982  0.86964663    -0.53400
C358        C  0.94561653  0.48885459  0.86957026     0.10600
C359        C  0.85888230  0.47987387  0.92001671    -0.52900
C360        C  0.87650645  0.50221633  0.92084534     0.11200
H361        H  0.84115610  0.47303251  0.78000170     0.15700
H362        H  0.92207407  0.52631708  0.86886836     0.01400
H363        H  0.95155462  0.45099282  0.86959224     0.16000
H364        H  0.83783014  0.47287257  0.95484366     0.15800
C365        C  0.87623240  0.57940426  0.61624034     0.87600
C366        C  0.86242422  0.56494252  0.66964602    -0.52600
C367        C  0.88017866  0.54252990  0.66983869     0.10500
C368        C  0.90913149  0.53615661  0.61592189     0.21500
C369        C  0.92967459  0.57774467  0.61370710    -0.53400
C370        C  0.94670880  0.55529039  0.61361647     0.10600
C371        C  0.85960939  0.56431620  0.56543205    -0.52900
C372        C  0.87737992  0.54191114  0.56463725     0.11200
H373        H  0.84174726  0.57162606  0.70521575     0.15700
H374        H  0.92348950  0.51787010  0.61573661     0.01400
H375        H  0.95218959  0.59313932  0.61237218     0.16000
H376        H  0.83793474  0.57115832  0.53127472     0.15800
In377      In  0.17765461  0.31297908  0.86723915     1.36900
C378        C  0.08625884  0.30741592  0.86974187     0.78700
O379        O  0.19738535  0.29368148  0.94718163    -0.59800
O380        O  0.25114353  0.31019768  0.89868797    -0.50700
C381        C  0.20746046  0.28337753  0.78816054     0.71400
O382        O  0.18201431  0.27677640  0.82917566    -0.45500
C383        C  0.18058022  0.35998493  0.86602860     0.76100
O384        O  0.10845485  0.31148481  0.82414890    -0.57400
O385        O  0.17198309  0.34827023  0.91070876    -0.47500
O386        O  0.11069359  0.30574529  0.91419508    -0.53800
C387        C  0.24043658  0.29703274  0.93998547     0.86200
O388        O  0.21464855  0.30531423  0.78501769    -0.55700
O389        O  0.18902519  0.34755856  0.82222477    -0.59000
In390      In  0.35299467  0.22716642  0.61472652     1.36900
C391        C  0.44457365  0.23140140  0.62140104     0.78700
O392        O  0.33290007  0.24610665  0.69510763    -0.59800
O393        O  0.27920255  0.23042257  0.64505898    -0.50700
C394        C  0.32487577  0.25835579  0.53919715     0.71400
O395        O  0.35020515  0.26400681  0.58075166    -0.45500
C396        C  0.34702563  0.18036482  0.61082386     0.76100
O397        O  0.42370569  0.22955624  0.57441993    -0.57400
O398        O  0.34561566  0.19193876  0.65699002    -0.47500
O399        O  0.41876929  0.23125413  0.66534652    -0.53800
C400        C  0.28983370  0.24306429  0.68739572     0.86200
O401        O  0.31674109  0.23655594  0.53376447    -0.55700
O402        O  0.34985533  0.19284716  0.56624540    -0.59000
In403      In  0.85375411  0.31607918  0.87302908     1.36900
C404        C  0.94494276  0.30918406  0.87134220     0.78700
O405        O  0.84633486  0.28019949  0.83434627    -0.59800
O406        O  0.81080599  0.30913785  0.79541896    -0.50700
C407        C  0.79602495  0.29940752  0.95078749     0.71400
O408        O  0.83937867  0.29594361  0.95313101    -0.45500
C409        C  0.84982721  0.36314711  0.87384864     0.76100
O410        O  0.92130154  0.30882666  0.91695686    -0.57400
O411        O  0.84416169  0.35106091  0.82899267    -0.47500
O412        O  0.92211858  0.31290176  0.82633541    -0.53800
C413        C  0.81787425  0.28712338  0.79721275     0.86200
O414        O  0.78254909  0.31310931  0.91188606    -0.55700
O415        O  0.85665444  0.35107233  0.91830982    -0.59000
In416      In  0.67804777  0.22867517  0.62380244     1.36900
C417        C  0.58619289  0.23272879  0.62432615     0.78700
O418        O  0.68440373  0.26445120  0.58430460    -0.59800
O419        O  0.72328200  0.23582339  0.54776854    -0.50700
C420        C  0.73476068  0.24582021  0.70107679     0.71400
O421        O  0.69198269  0.25101363  0.70060435    -0.45500
C422        C  0.68392039  0.18187480  0.62197040     0.76100
O423        O  0.60960119  0.23249154  0.66973425    -0.57400
O424        O  0.68804146  0.19420845  0.57726101    -0.47500
O425        O  0.60963919  0.23145002  0.57854907    -0.53800
C426        C  0.71486943  0.25772796  0.54868585     0.86200
O427        O  0.74761974  0.23021592  0.66579440    -0.55700
O428        O  0.67789970  0.19362060  0.66743090    -0.59000
C429        C  0.38196278  0.96348195  0.86680491     0.87600
C430        C  0.36572338  0.97792210  0.81459616    -0.52600
C431        C  0.38239108  0.00047265  0.81347909     0.10500
C432        C  0.41263976  0.00695456  0.86549428     0.21500
C433        C  0.43533070  0.96550630  0.86583994    -0.53400
C434        C  0.45115462  0.98812501  0.86506514     0.10600
C435        C  0.36613559  0.97839570  0.91879490    -0.52900
C436        C  0.38287763  0.00086821  0.91868156     0.11200
H437        H  0.34464704  0.97082305  0.78027920     0.15700
H438        H  0.42607586  0.02534677  0.86500147     0.01400
H439        H  0.45861564  0.95027943  0.86565631     0.16000
H440        H  0.34519046  0.97168239  0.95398506     0.15800
C441        C  0.37847382  0.07910995  0.61719997     0.87600
C442        C  0.36330083  0.06425138  0.66952204    -0.52600
C443        C  0.38141486  0.04188818  0.66962576     0.10500
C444        C  0.41224663  0.03602386  0.61701940     0.21500
C445        C  0.43201198  0.07771967  0.61759192    -0.53400
C446        C  0.44946842  0.05533796  0.61748543     0.10600
C447        C  0.36403083  0.06426866  0.56507029    -0.52900
C448        C  0.38220207  0.04196969  0.56438382     0.11200
H449        H  0.34203145  0.07063196  0.70483988     0.14100
H450        H  0.42695456  0.01780715  0.61683957     0.01400
H451        H  0.45425918  0.09322029  0.61786047     0.16000
H452        H  0.34361420  0.07129548  0.52996114     0.15800
C453        C  0.66161331  0.96443491  0.86341886     0.87600
C454        C  0.67622318  0.97933405  0.91577924    -0.52600
C455        C  0.65889763  0.00181173  0.91564757     0.10500
C456        C  0.62926159  0.00779352  0.86279411     0.21500
C457        C  0.60815765  0.96626853  0.86303193    -0.53400
C458        C  0.59145566  0.98878649  0.86270731     0.10600
C459        C  0.67759848  0.97900731  0.81132833    -0.52900
C460        C  0.66013123  0.00148677  0.81051168     0.11200
H461        H  0.69691252  0.97299911  0.95115969     0.15700
H462        H  0.61513325  0.02612555  0.86250769     0.01400
H463        H  0.58539671  0.95095887  0.86309793     0.16000
H464        H  0.69837914  0.97170199  0.77639044     0.15800
C465        C  0.66006757  0.08016267  0.61508336     0.87600
C466        C  0.67473241  0.06559000  0.56188448    -0.52600
C467        C  0.65753824  0.04317125  0.56152314     0.10500
C468        C  0.62825874  0.03688382  0.61493937     0.21500
C469        C  0.60661283  0.07843662  0.61683476    -0.53400
C470        C  0.59018472  0.05594386  0.61673362     0.10600
C471        C  0.67654643  0.06520771  0.66616585    -0.52900
C472        C  0.65931848  0.04278063  0.66664059     0.11200
H473        H  0.69544532  0.07218105  0.52647593     0.15700
H474        H  0.61438050  0.01857647  0.61488246     0.01400
H475        H  0.58367743  0.09379753  0.61790387     0.16000
H476        H  0.69760417  0.07217326  0.70072261     0.15800
In477      In  0.18624318  0.72612896  0.62634801     1.36900
C478        C  0.09478812  0.73089391  0.61775922     0.78700
O479        O  0.19282975  0.76241107  0.58988911    -0.59800
O480        O  0.23322763  0.73444468  0.55265821    -0.50700
C481        C  0.23959030  0.74370188  0.70690094     0.71400
O482        O  0.19596356  0.74660557  0.70754432    -0.45500
C483        C  0.19186542  0.67916728  0.62384496     0.76100
O484        O  0.11509571  0.73039442  0.66540344    -0.57400
O485        O  0.19885886  0.69168086  0.58000482    -0.47500
O486        O  0.12109491  0.72926591  0.57447947    -0.53800
C487        C  0.22404239  0.75628342  0.55459680     0.86200
O488        O  0.25512133  0.72978079  0.66914115    -0.55700
O489        O  0.18390894  0.69079309  0.66905886    -0.59000
In490      In  0.36410177  0.81493028  0.87379827     1.36900
C491        C  0.45606302  0.81103753  0.87016786     0.78700
O492        O  0.35594220  0.77973378  0.83132501    -0.59800
O493        O  0.31306044  0.80824001  0.80348259    -0.50700
C494        C  0.31368378  0.79650096  0.95633097     0.71400
O495        O  0.35610184  0.79128813  0.94935074    -0.45500
C496        C  0.35765819  0.86171480  0.87164468     0.76100
O497        O  0.43338792  0.81158272  0.91653275    -0.57400
O498        O  0.35655241  0.84921278  0.82682948    -0.47500
O499        O  0.43187497  0.81220870  0.82542382    -0.53800
C500        C  0.32247553  0.78646859  0.80086088     0.86200
O501        O  0.29826560  0.81277138  0.92495830    -0.55700
O502        O  0.36057955  0.85013543  0.91757134    -0.59000
In503      In  0.86141779  0.72792547  0.61010592     1.36900
C504        C  0.95332019  0.73170060  0.61028182     0.78700
O505        O  0.85626836  0.76440237  0.64615168    -0.59800
O506        O  0.82323749  0.73615739  0.69114013    -0.50700
C507        C  0.80237075  0.74566141  0.53584157     0.71400
O508        O  0.84587949  0.74776176  0.52983566    -0.45500
C509        C  0.85285522  0.68116931  0.61036813     0.76100
O510        O  0.93009642  0.73242379  0.56474782    -0.57400
O511        O  0.84826741  0.69353773  0.65508737    -0.47500
O512        O  0.92972502  0.72934861  0.65555066    -0.53800
C513        C  0.83005681  0.75809846  0.68672941     0.86200
O514        O  0.78923896  0.73276178  0.57660587    -0.55700
O515        O  0.86050342  0.69286712  0.56543232    -0.59000
In516      In  0.68949348  0.81608436  0.86314854     1.36900
C517        C  0.59785968  0.81098575  0.86647273     0.78700
O518        O  0.70041904  0.78087696  0.90392425    -0.59800
O519        O  0.73429709  0.81083258  0.94008574    -0.50700
C520        C  0.74728997  0.79923344  0.78527828     0.71400
O521        O  0.70562947  0.79241449  0.78909777    -0.45500
C522        C  0.69156652  0.86286746  0.86017271     0.76100
O523        O  0.62071415  0.81101182  0.82021257    -0.57400
O524        O  0.69929058  0.85129152  0.90531266    -0.47500
O525        O  0.62178619  0.81295214  0.91124815    -0.53800
C526        C  0.72899204  0.78870207  0.93983943     0.86200
O527        O  0.75824850  0.81609474  0.81761787    -0.55700
O528        O  0.68397705  0.85038058  0.81643100    -0.59000
C529        C  0.78147344  0.76080771  0.00240747    -0.12200
C530        C  0.75593371  0.77330832  0.97516467    -0.13700
C531        C  0.78063996  0.78736341  0.74977812    -0.12200
C532        C  0.80621758  0.77480759  0.72228221    -0.13700
C533        C  0.50597756  0.80963233  0.86863293    -0.12200
C534        C  0.54797927  0.80953989  0.86786315    -0.13700
C535        C  0.04510629  0.73264945  0.61320374    -0.12200
C536        C  0.00318936  0.73290219  0.61077153    -0.13700
C537        C  0.24938727  0.77312353  0.52137093    -0.12200
C538        C  0.27411387  0.78608413  0.49418933    -0.13700
C539        C  0.26995003  0.75704976  0.74273879    -0.12200
C540        C  0.29516051  0.77021853  0.76840917    -0.13700
C541        C  0.66255704  0.01697927  0.96546294    -0.12200
C542        C  0.66059734  0.02843395  0.51084693    -0.13700
C543        C  0.66352641  0.01617109  0.75997098    -0.12200
C544        C  0.66324092  0.02781359  0.71660235    -0.13700
C545        C  0.69554124  0.92659543  0.90865258    -0.12200
C546        C  0.67670245  0.93853994  0.86114591     0.09900
C547        C  0.66620519  0.92520587  0.81188921    -0.12200
C548        C  0.67296891  0.90075116  0.81066129    -0.12200
C549        C  0.68979843  0.88891848  0.85899684     0.09900
C550        C  0.70185455  0.90208843  0.90751910    -0.12200
H551        H  0.70349863  0.93556204  0.94807330     0.13900
H552        H  0.65096614  0.93366513  0.77489273     0.13900
H553        H  0.66321220  0.89100132  0.77266491     0.13900
H554        H  0.71487641  0.89334349  0.94540283     0.13900
C555        C  0.49894891  0.05097862  0.61772728    -0.12200
C556        C  0.54093199  0.05120249  0.61754720    -0.13700
C557        C  0.50021154  0.99321295  0.86372381    -0.12200
C558        C  0.54215626  0.99350087  0.86292242    -0.13700
C559        C  0.37817076  0.02688010  0.71970373    -0.12200
C560        C  0.37838374  0.01520457  0.76305836    -0.13700
C561        C  0.37943798  0.01567284  0.96916627    -0.12200
C562        C  0.37962698  0.02723067  0.51370895    -0.13700
C563        C  0.36548689  0.92525080  0.92039354    -0.12200
C564        C  0.36758586  0.93758360  0.86804768     0.09900
C565        C  0.36530383  0.92437359  0.81690492    -0.12200
C566        C  0.35974089  0.89985186  0.81809574    -0.12200
C567        C  0.35766166  0.88779466  0.87040079     0.09900
C568        C  0.35989825  0.90075462  0.92152519    -0.12200
H569        H  0.37029331  0.93424596  0.96077695     0.13900
H570        H  0.36985933  0.93274124  0.77571348     0.13900
H571        H  0.35910408  0.89021750  0.77798214     0.13900
H572        H  0.35929765  0.89184844  0.96250246     0.13900
C573        C  0.67229813  0.14321830  0.67073290    -0.12200
C574        C  0.68430178  0.15579231  0.62120774     0.09900
C575        C  0.69326290  0.14330327  0.57033677    -0.12200
C576        C  0.68852831  0.11871513  0.56842748    -0.12200
C577        C  0.67471278  0.10602368  0.61758042     0.09900
C578        C  0.66709243  0.11872772  0.66878665    -0.12200
H579        H  0.66486342  0.15241714  0.71051575     0.13900
H580        H  0.70231661  0.15263237  0.53141908     0.13900
H581        H  0.69321721  0.11021298  0.52742114     0.13900
H582        H  0.65506723  0.10978288  0.70701639     0.13900
C583        C  0.74076830  0.27401565  0.51458063    -0.12200
C584        C  0.76680211  0.28644624  0.48784396    -0.13700
C585        C  0.76711824  0.25823493  0.73597593    -0.12200
C586        C  0.79253825  0.27091948  0.76255671    -0.13700
C587        C  0.36651619  0.14228295  0.56217847    -0.12200
C588        C  0.34786669  0.15431214  0.60963375     0.09900
C589        C  0.33438572  0.14137881  0.65808670    -0.12200
C590        C  0.34127697  0.11690465  0.66013516    -0.12200
C591        C  0.36252877  0.10484618  0.61384751     0.09900
C592        C  0.37417972  0.11791549  0.56449430    -0.12200
H593        H  0.37754208  0.15187970  0.52441904     0.13900
H594        H  0.31983513  0.15032256  0.69524513     0.13900
H595        H  0.33193853  0.10806081  0.69931902     0.13900
H596        H  0.39111872  0.10933902  0.52835115     0.13900
C597        C  0.49430491  0.23318788  0.62428245    -0.12200
C598        C  0.53626571  0.23367699  0.62475740    -0.13700
C599        C  0.99455104  0.30631077  0.87100539    -0.12200
C600        C  0.03649181  0.30571668  0.87095448    -0.13700
C601        C  0.30088753  0.27296471  0.00098841    -0.12200
C602        C  0.27482448  0.28523083  0.97377526    -0.13700
C603        C  0.23013191  0.26695447  0.75064000    -0.12200
C604        C  0.25540071  0.25461288  0.72209320    -0.13700
C605        C  0.84892581  0.61816226  0.66380766    -0.12200
C606        C  0.86100187  0.60525486  0.61405154     0.09900
C607        C  0.86698474  0.61778823  0.56249292    -0.12200
C608        C  0.86183475  0.64231522  0.56076626    -0.12200
C609        C  0.85155372  0.65508908  0.61081756     0.09900
C610        C  0.84412011  0.64276724  0.66206779    -0.12200
H611        H  0.84582605  0.60978523  0.70505084     0.13900
H612        H  0.87786847  0.60869885  0.52375529     0.13900
H613        H  0.86810399  0.65137647  0.52068584     0.13900
H614        H  0.83656115  0.65224416  0.70143718     0.13900
C615        C  0.87342240  0.51680030  0.97189189    -0.12200
C616        C  0.87306220  0.52686811  0.51464354    -0.13700
C617        C  0.87703606  0.51656595  0.76454851    -0.12200
C618        C  0.87750167  0.52784043  0.72054515    -0.13700
C619        C  0.84451754  0.42656515  0.82277215    -0.12200
C620        C  0.86047808  0.43905105  0.87110861     0.09900
C621        C  0.86940585  0.42617363  0.92144995    -0.12200
C622        C  0.86390522  0.40167229  0.92306611    -0.12200
C623        C  0.85007018  0.38927387  0.87406237     0.09900
C624        C  0.83949257  0.40198269  0.82431481    -0.12200
H625        H  0.83818983  0.43519753  0.78250343     0.13900
H626        H  0.88268254  0.43500585  0.95909647     0.13900
H627        H  0.87244668  0.39232615  0.96202819     0.13900
H628        H  0.82879507  0.39282052  0.78585977     0.13900
C629        C  0.99491665  0.49327305  0.86726845    -0.12200
C630        C  0.03679726  0.49275651  0.86385880    -0.13700
C631        C  0.15699114  0.42319420  0.90996459    -0.12200
C632        C  0.16816719  0.43582907  0.85985909     0.09900
C633        C  0.18639467  0.42311455  0.81263022    -0.12200
C634        C  0.19166713  0.39851446  0.81513268    -0.12200
C635        C  0.17923118  0.38608575  0.86482932     0.09900
C636        C  0.16271468  0.39872349  0.91255993    -0.12200
H637        H  0.14212501  0.43225174  0.94676833     0.13900
H638        H  0.19477646  0.43161147  0.77266222     0.13900
H639        H  0.20435889  0.38913974  0.77759510     0.13900
H640        H  0.15258887  0.38960055  0.95136872     0.13900
C641        C  0.03811729  0.55074662  0.61182003    -0.12200
C642        C  0.99612651  0.55073588  0.61241688    -0.13700
C643        C  0.15536468  0.52710144  0.50419376    -0.12200
C644        C  0.15814418  0.51366602  0.96065076    -0.13700
C645        C  0.15823603  0.52559997  0.71085058    -0.12200
C646        C  0.15741941  0.51397946  0.75427289    -0.13700
C647        C  0.16427887  0.61639467  0.66497825    -0.12200
C648        C  0.17522056  0.60373562  0.61460061     0.09900
C649        C  0.19631725  0.61607091  0.56889018    -0.12200
C650        C  0.20354882  0.64050907  0.57259752    -0.12200
C651        C  0.19047547  0.65306852  0.62213855     0.09900
C652        C  0.17207463  0.64064620  0.66885395    -0.12200
H653        H  0.14771309  0.60760037  0.70082221     0.13900
H654        H  0.20540167  0.60748250  0.52908934     0.13900
H655        H  0.21798306  0.64970786  0.53598594     0.13900
H656        H  0.16156075  0.64986093  0.70759039     0.13900
loop_ 
_geom_bond_atom_site_label_1 
_geom_bond_atom_site_label_2 
_geom_bond_distance 
_geom_bond_site_symmetry_2 
_ccdc_geom_bond_type 
C1            C2   1.543       .  S
C1            C7   1.539       .  S
C1            C5   1.540       .  S
C1          C320   1.525       .  S
C2            H9   1.083       .  S
C2            C3   1.363       .  D
C3            C4   1.543       .  S
C3          C315   1.448       .  S
C4            C8   1.542       .  S
C4            C6   1.531       .  S
C4           H10   1.111       .  S
C5           H11   1.087       .  S
C5            C6   1.361       .  D
C6          C313   1.441       .  S
C7           H12   1.087       .  S
C7            C8   1.362       .  D
C8          C317   1.445       .  S
C13          C14   1.537       .  S
C13          C19   1.543       .  S
C13          C17   1.537       .  S
C13         C304   1.522       .  S
C14          H21   1.087       .  S
C14          C15   1.362       .  D
C15          C16   1.543       .  S
C15         C316   1.447       .  S
C16          C20   1.543       .  S
C16          C18   1.532       .  S
C16          H22   1.111       .  S
C17          H23   1.087       .  S
C17          C18   1.359       .  D
C18         C302   1.437       .  S
C19          H24   1.082       .  S
C19          C20   1.362       .  D
C20         C318   1.445       .  S
C25          C26   1.547       .  S
C25          C31   1.539       .  S
C25          C29   1.538       .  S
C25         C292   1.526       .  S
C26          H33   1.083       .  S
C26          C27   1.366       .  D
C27          C28   1.541       .  S
C27         C289   1.450       .  S
C28          C32   1.543       .  S
C28          C30   1.529       .  S
C28          H34   1.112       .  S
C29          H35   1.087       .  S
C29          C30   1.359       .  D
C30         C301   1.437       .  S
C31          H36   1.087       .  S
C31          C32   1.363       .  D
C32         C287   1.449       .  S
C37          C38   1.545       .  S
C37          C43   1.540       .  S
C37          C41   1.536       .  S
C37         C278   1.525       .  S
C38          H45   1.083       .  S
C38          C39   1.365       .  D
C39          C40   1.544       .  S
C39         C290   1.450       .  S
C40          C44   1.544       .  S
C40          C42   1.533       .  S
C40          H46   1.111       .  S
C41          H47   1.087       .  S
C41          C42   1.358       .  D
C42         C314   1.441       .  S
C43          H48   1.086       .  S
C43          C44   1.363       .  D
C44         C288   1.450       .  S
In49         O51   2.229       .  S
In49         O52   2.243       .  S
In49         O60   2.232       .  S
In49         O54   2.227       .  S
In49         O56   2.235       .  S
In49         O57   2.237       .  S
In49         O58   2.237       .  S
In49         O61   2.234       .  S
C50          O56   1.260       .  A
C50          O58   1.261       .  A
C50         C272   1.430       .  S
O51          C59   1.259       .  A
O52          C59   1.258       .  A
C53          O60   1.261       .  A
C53          O54   1.258       .  A
C53         C275   1.425       .  S
C55          O57   1.261       .  A
C55          O61   1.262       .  A
C55         C307   1.471       .  S
C59         C274   1.428       .  S
In62         O64   2.225       .  S
In62         O65   2.239       .  S
In62         O73   2.240       .  S
In62         O67   2.234       .  S
In62         O69   2.241       .  S
In62         O70   2.238       .  S
In62         O71   2.243       .  S
In62         O74   2.251       .  S
C63          O69   1.260       .  A
C63          O71   1.259       .  A
C63         C269   1.433       .  S
O64          C72   1.260       .  A
O65          C72   1.259       .  A
C66          O73   1.263       .  A
C66          O67   1.258       .  A
C66         C601   1.431       .  S
C68          O70   1.261       .  A
C68          O74   1.263       .  A
C68         C260   1.478       .  S
C72         C276   1.425       .  S
In75         O77   2.230       .  S
In75         O78   2.226       .  S
In75         O86   2.230       .  S
In75         O80   2.238       .  S
In75         O82   2.239       .  S
In75         O83   2.241       .  S
In75         O84   2.238       .  S
In75         O87   2.238       .  S
C76          O82   1.260       .  A
C76          O84   1.260       .  A
C76         C271   1.431   1_655  S
O77          C85   1.258       .  A
O78          C85   1.261       .  A
C79          O86   1.257       .  A
C79          O80   1.261       .  A
C79         C584   1.427       .  S
C81          O83   1.261       .  A
C81          O87   1.262       .  A
C81         C295   1.475       .  S
C85         C258   1.424       .  S
In88         O90   2.231       .  S
In88         O91   2.233       .  S
In88         O99   2.232       .  S
In88         O93   2.232       .  S
In88         O95   2.242       .  S
In88         O96   2.241       .  S
In88         O97   2.237       .  S
In88        O100   2.237       .  S
C89          O95   1.260       .  A
C89          O97   1.260       .  A
C89         C270   1.433       .  S
O90          C98   1.258       .  A
O91          C98   1.261       .  A
C92          O99   1.257       .  A
C92          O93   1.260       .  A
C92         C257   1.425       .  S
C94          O96   1.261       .  A
C94         O100   1.262       .  A
C94         C246   1.473       .  S
C98         C255   1.427       .  S
C101        C102   1.548       .  S
C101        C107   1.539       .  S
C101        C105   1.538       .  S
C101        C236   1.529       .  S
C102        H109   1.083       .  S
C102        C103   1.367   1_565  D
C103        C104   1.543       .  S
C103        C232   1.454       .  S
C104        C108   1.543       .  S
C104        C106   1.530   1_545  S
C104        H110   1.111       .  S
C105        H111   1.087       .  S
C105        C106   1.360       .  D
C106        C229   1.439       .  S
C107        H112   1.087       .  S
C107        C108   1.362   1_565  D
C108        C233   1.449       .  S
C113        C114   1.542       .  S
C113        C119   1.545       .  S
C113        C117   1.537       .  S
C113        C263   1.529       .  S
C114        H121   1.086       .  S
C114        C115   1.366       .  D
C115        C116   1.544       .  S
C115        C231   1.454       .  S
C116        C120   1.542       .  S
C116        C118   1.530       .  S
C116        H122   1.111       .  S
C117        H123   1.087       .  S
C117        C118   1.359       .  D
C118        C227   1.437       .  S
C119        H124   1.082       .  S
C119        C120   1.363       .  D
C120        C234   1.447       .  S
C125        C126   1.540       .  S
C125        C131   1.543       .  S
C125        C129   1.536       .  S
C125        C218   1.523       .  S
C126        H133   1.086       .  S
C126        C127   1.363   1_565  D
C127        C128   1.544       .  S
C127        C213   1.448       .  S
C128        C132   1.543       .  S
C128        C130   1.531   1_545  S
C128        H134   1.111       .  S
C129        H135   1.087       .  S
C129        C130   1.359       .  D
C130        C230   1.438       .  S
C131        H136   1.083       .  S
C131        C132   1.362   1_565  D
C132        C215   1.446       .  S
C137        C138   1.546       .  S
C137        C143   1.536       .  S
C137        C141   1.539       .  S
C137        C249   1.524       .  S
C138        H145   1.082       .  S
C138        C139   1.366       .  D
C139        C140   1.542       .  S
C139        C214   1.449       .  S
C140        C144   1.543       .  S
C140        C142   1.529       .  S
C140        H146   1.112       .  S
C141        H147   1.087       .  S
C141        C142   1.359       .  D
C142        C228   1.437       .  S
C143        H148   1.087       .  S
C143        C144   1.361       .  D
C144        C216   1.446       .  S
In149       O151   2.229       .  S
In149       O152   2.236       .  S
In149       O160   2.239       .  S
In149       O154   2.231       .  S
In149       O156   2.242       .  S
In149       O157   2.248       .  S
In149       O158   2.246       .  S
In149       O161   2.228       .  S
C150        O156   1.260       .  A
C150        O158   1.261       .  A
C150        C207   1.436       .  S
O151        C159   1.258       .  A
O152        C159   1.262       .  A
C153        O160   1.259       .  A
C153        O154   1.260       .  A
C153        C211   1.430       .  S
C155        O157   1.263       .  A
C155        O161   1.262       .  A
C155        C323   1.475       .  S
C159        C209   1.427       .  S
In162       O164   2.238       .  S
In162       O165   2.239       .  S
In162       O173   2.234       .  S
In162       O167   2.238       .  S
In162       O169   2.247       .  S
In162       O170   2.248       .  S
In162       O171   2.247       .  S
In162       O174   2.243       .  S
C163        O169   1.261       .  A
C163        O171   1.260       .  A
C163        C205   1.438       .  S
O164        C172   1.258       .  A
O165        C172   1.262       .  A
C166        O173   1.258       .  A
C166        O167   1.261       .  A
C166        C538   1.429       .  S
C168        O170   1.262       .  A
C168        O174   1.262       .  A
C168        C239   1.479       .  S
C172        C212   1.431       .  S
In175       O177   2.236       .  S
In175       O178   2.233       .  S
In175       O186   2.234       .  S
In175       O180   2.241       .  S
In175       O182   2.244       .  S
In175       O183   2.244       .  S
In175       O184   2.245       .  S
In175       O187   2.239       .  S
C176        O182   1.261       .  A
C176        O184   1.261       .  A
C176        C208   1.436   1_655  S
O177        C185   1.259       .  A
O178        C185   1.261       .  A
C179        O186   1.257       .  A
C179        O180   1.261       .  A
C179        C529   1.430       .  S
C181        O183   1.262       .  A
C181        O187   1.262       .  A
C181        C281   1.476       .  S
C185        C204   1.430       .  S
In188       O190   2.231       .  S
In188       O191   2.235       .  S
In188       O199   2.233       .  S
In188       O193   2.236       .  S
In188       O195   2.253       .  S
In188       O196   2.239       .  S
In188       O197   2.240       .  S
In188       O200   2.241       .  S
C189        O195   1.262       .  A
C189        O197   1.259       .  A
C189        C206   1.437       .  S
O190        C198   1.259       .  A
O191        C198   1.262       .  A
C192        O199   1.259       .  A
C192        O193   1.263       .  A
C192        C203   1.430       .  S
C194        O196   1.261       .  A
C194        O200   1.261       .  A
C194        C221   1.474       .  S
C198        C202   1.428       .  S
C201        C507   1.428       .  S
C201        C202   1.202       .  T
C203        C204   1.203       .  T
C205        C206   1.207       .  T
C207        C208   1.206       .  T
C209        C210   1.201   1_554  T
C210        C494   1.426       .  S
C211        C212   1.203       .  T
C213        C542   1.210       .  T
C214        C541   1.210   1_554  T
C215        C216   1.209       .  T
C217        C218   1.409       .  A
C217        C222   1.395       .  A
C217        H223   1.083       .  S
C218        C219   1.411       .  A
C219        C220   1.397       .  A
C219        H224   1.078       .  S
C220        C221   1.402       .  A
C220        H225   1.083       .  S
C221        C222   1.401       .  A
C222        H226   1.083       .  S
C227        C228   1.203       .  T
C229        C230   1.204       .  T
C231        C232   1.213       .  T
C233        C562   1.210       .  T
C234        C561   1.209   1_554  T
C235        C236   1.410       .  A
C235        C240   1.396       .  A
C235        H241   1.083       .  S
C236        C237   1.410       .  A
C237        C238   1.401       .  A
C237        H242   1.078       .  S
C238        C239   1.404       .  A
C238        H243   1.083       .  S
C239        C240   1.402       .  A
C240        H244   1.083       .  S
C245        C246   1.400       .  A
C245        C250   1.393       .  A
C245        H251   1.083       .  S
C246        C247   1.403       .  A
C247        C248   1.400       .  A
C247        H252   1.083       .  S
C248        C249   1.409       .  A
C248        H253   1.077       .  S
C249        C250   1.409       .  A
C250        H254   1.083       .  S
C255        C256   1.201   1_554  T
C256        C407   1.426       .  S
C257        C258   1.200       .  T
C259        C260   1.402       .  A
C259        C264   1.401       .  A
C259        H265   1.083       .  S
C260        C261   1.402       .  A
C261        C262   1.396       .  A
C261        H266   1.083       .  S
C262        C263   1.409       .  A
C262        H267   1.083       .  S
C263        C264   1.412       .  A
C264        H268   1.077       .  S
C269        C270   1.204       .  T
C271        C272   1.203       .  T
C273        C394   1.427       .  S
C273        C274   1.201       .  T
C275        C276   1.200       .  T
C277        C278   1.410       .  A
C277        C282   1.399       .  A
C277        H283   1.078       .  S
C278        C279   1.410       .  A
C279        C280   1.395       .  A
C279        H284   1.083       .  S
C280        C281   1.401       .  A
C280        H285   1.083       .  S
C281        C282   1.403       .  A
C282        H286   1.083       .  S
C287        C616   1.211       .  T
C288        C615   1.211   1_554  T
C289        C290   1.211       .  T
C291        C292   1.410       .  A
C291        C296   1.400       .  A
C291        H297   1.078       .  S
C292        C293   1.410       .  A
C293        C294   1.394       .  A
C293        H298   1.083       .  S
C294        C295   1.400       .  A
C294        H299   1.083       .  S
C295        C296   1.403       .  A
C296        H300   1.083       .  S
C301        C302   1.203   1_655  T
C303        C304   1.409       .  A
C303        C308   1.394       .  A
C303        H309   1.083       .  S
C304        C305   1.410       .  A
C305        C306   1.396       .  A
C305        H310   1.077       .  S
C306        C307   1.401       .  A
C306        H311   1.083       .  S
C307        C308   1.401       .  A
C308        H312   1.083       .  S
C313        C314   1.205   1_455  T
C315        C644   1.209   1_554  T
C316        C643   1.209       .  T
C317        C318   1.208       .  T
C319        C320   1.408       .  A
C319        C324   1.393       .  A
C319        H325   1.083       .  S
C320        C321   1.411       .  A
C321        C322   1.400       .  A
C321        H326   1.077       .  S
C322        C323   1.403       .  A
C322        H327   1.083       .  S
C323        C324   1.401       .  A
C324        H328   1.083       .  S
C329        C330   1.544       .  S
C329        C335   1.539       .  S
C329        C333   1.540       .  S
C329        C648   1.527       .  S
C330        H337   1.082       .  S
C330        C331   1.364       .  D
C331        C332   1.542       .  S
C331        C643   1.447       .  S
C332        C336   1.543       .  S
C332        C334   1.530       .  S
C332        H338   1.112       .  S
C333        H339   1.087       .  S
C333        C334   1.360       .  D
C334        C641   1.440       .  S
C335        H340   1.087       .  S
C335        C336   1.363       .  D
C336        C645   1.449       .  S
C341        C342   1.541       .  S
C341        C347   1.545       .  S
C341        C345   1.538       .  S
C341        C632   1.526       .  S
C342        H349   1.087       .  S
C342        C343   1.364       .  D
C343        C344   1.541       .  S
C343        C644   1.448       .  S
C344        C348   1.544       .  S
C344        C346   1.530       .  S
C344        H350   1.112       .  S
C345        H351   1.087       .  S
C345        C346   1.359       .  D
C346        C630   1.438       .  S
C347        H352   1.083       .  S
C347        C348   1.364       .  D
C348        C646   1.450       .  S
C353        C354   1.546       .  S
C353        C359   1.539       .  S
C353        C357   1.537       .  S
C353        C620   1.527       .  S
C354        H361   1.083       .  S
C354        C355   1.364       .  D
C355        C356   1.543       .  S
C355        C617   1.451       .  S
C356        C360   1.546       .  S
C356        C358   1.531       .  S
C356        H362   1.111       .  S
C357        H363   1.087       .  S
C357        C358   1.359       .  D
C358        C629   1.438       .  S
C359        H364   1.086       .  S
C359        C360   1.364       .  D
C360        C615   1.450       .  S
C365        C366   1.544       .  S
C365        C371   1.540       .  S
C365        C369   1.536       .  S
C365        C606   1.525       .  S
C366        H373   1.083       .  S
C366        C367   1.364       .  D
C367        C368   1.544       .  S
C367        C618   1.451       .  S
C368        C372   1.545       .  S
C368        C370   1.532       .  S
C368        H374   1.111       .  S
C369        H375   1.087       .  S
C369        C370   1.359       .  D
C370        C642   1.440       .  S
C371        H376   1.086       .  S
C371        C372   1.364       .  D
C372        C616   1.450       .  S
In377       O379   2.241       .  S
In377       O380   2.243       .  S
In377       O388   2.228       .  S
In377       O382   2.233       .  S
In377       O384   2.235       .  S
In377       O385   2.242       .  S
In377       O386   2.245       .  S
In377       O389   2.248       .  S
C378        O384   1.259       .  A
C378        O386   1.261       .  A
C378        C600   1.431       .  S
O379        C387   1.260       .  A
O380        C387   1.258       .  A
C381        O388   1.261       .  A
C381        O382   1.259       .  A
C381        C603   1.426       .  S
C383        O385   1.261       .  A
C383        O389   1.261       .  A
C383        C635   1.477       .  S
C387        C602   1.432       .  S
In390       O392   2.230       .  S
In390       O393   2.234       .  S
In390       O401   2.230       .  S
In390       O395   2.233       .  S
In390       O397   2.235       .  S
In390       O398   2.237       .  S
In390       O399   2.247       .  S
In390       O402   2.247       .  S
C391        O397   1.259       .  A
C391        O399   1.261       .  A
C391        C597   1.433       .  S
O392        C400   1.262       .  A
O393        C400   1.259       .  A
C394        O401   1.262       .  A
C394        O395   1.259       .  A
C396        O398   1.260       .  A
C396        O402   1.262       .  A
C396        C588   1.474       .  S
C400        C604   1.427       .  S
In403       O405   2.231       .  S
In403       O406   2.235       .  S
In403       O414   2.236       .  S
In403       O408   2.230       .  S
In403       O410   2.236       .  S
In403       O411   2.250       .  S
In403       O412   2.243       .  S
In403       O415   2.244       .  S
C404        O410   1.259       .  A
C404        O412   1.261       .  A
C404        C599   1.431       .  S
O405        C413   1.258       .  A
O406        C413   1.262       .  A
C407        O414   1.258       .  A
C407        O408   1.260       .  A
C409        O411   1.262       .  A
C409        O415   1.261       .  A
C409        C623   1.478       .  S
C413        C586   1.427       .  S
In416       O418   2.234       .  S
In416       O419   2.231       .  S
In416       O427   2.233       .  S
In416       O421   2.231       .  S
In416       O423   2.239       .  S
In416       O424   2.246       .  S
In416       O425   2.241       .  S
In416       O428   2.232       .  S
C417        O423   1.260       .  A
C417        O425   1.261       .  A
C417        C598   1.433       .  S
O418        C426   1.259       .  A
O419        C426   1.261       .  A
C420        O427   1.258       .  A
C420        O421   1.260       .  A
C420        C585   1.426       .  S
C422        O424   1.263       .  A
C422        O428   1.261       .  A
C422        C574   1.475       .  S
C426        C583   1.428       .  S
C429        C430   1.544       .  S
C429        C435   1.541       .  S
C429        C433   1.536       .  S
C429        C564   1.524       .  S
C430        H437   1.085       .  S
C430        C431   1.365   1_565  D
C431        C432   1.543       .  S
C431        C560   1.450       .  S
C432        C436   1.543       .  S
C432        C434   1.531   1_545  S
C432        H438   1.111       .  S
C433        H439   1.087       .  S
C433        C434   1.360       .  D
C434        C557   1.438       .  S
C435        H440   1.085       .  S
C435        C436   1.361   1_565  D
C436        C561   1.447       .  S
C441        C442   1.547       .  S
C441        C447   1.538       .  S
C441        C445   1.538       .  S
C441        C591   1.526       .  S
C442        H449   1.082       .  S
C442        C443   1.365       .  D
C443        C444   1.543       .  S
C443        C559   1.450       .  S
C444        C448   1.544       .  S
C444        C446   1.532       .  S
C444        H450   1.111       .  S
C445        H451   1.087       .  S
C445        C446   1.359       .  D
C446        C555   1.439       .  S
C447        H452   1.087       .  S
C447        C448   1.362       .  D
C448        C562   1.449       .  S
C453        C454   1.545       .  S
C453        C459   1.540       .  S
C453        C457   1.537       .  S
C453        C546   1.526       .  S
C454        H461   1.082       .  S
C454        C455   1.363   1_565  D
C455        C456   1.542       .  S
C455        C541   1.449       .  S
C456        C460   1.543       .  S
C456        C458   1.531   1_545  S
C456        H462   1.111       .  S
C457        H463   1.087       .  S
C457        C458   1.359       .  D
C458        C558   1.438       .  S
C459        H464   1.086       .  S
C459        C460   1.365   1_565  D
C460        C543   1.449       .  S
C465        C466   1.544       .  S
C465        C471   1.541       .  S
C465        C469   1.537       .  S
C465        C577   1.525       .  S
C466        H473   1.083       .  S
C466        C467   1.363       .  D
C467        C468   1.542       .  S
C467        C542   1.448       .  S
C468        C472   1.543       .  S
C468        C470   1.531       .  S
C468        H474   1.111       .  S
C469        H475   1.087       .  S
C469        C470   1.359       .  D
C470        C556   1.439       .  S
C471        H476   1.086       .  S
C471        C472   1.364       .  D
C472        C544   1.449       .  S
In477       O479   2.233       .  S
In477       O480   2.231       .  S
In477       O488   2.232       .  S
In477       O482   2.240       .  S
In477       O484   2.241       .  S
In477       O485   2.253       .  S
In477       O486   2.242       .  S
In477       O489   2.238       .  S
C478        O484   1.261       .  A
C478        O486   1.260       .  A
C478        C535   1.433       .  S
O479        C487   1.259       .  A
O480        C487   1.262       .  A
C481        O488   1.258       .  A
C481        O482   1.261       .  A
C481        C539   1.430       .  S
C483        O485   1.262       .  A
C483        O489   1.261       .  A
C483        C651   1.478       .  S
C487        C537   1.429       .  S
In490       O492   2.236       .  S
In490       O493   2.242       .  S
In490       O501   2.231       .  S
In490       O495   2.229       .  S
In490       O497   2.238       .  S
In490       O498   2.241       .  S
In490       O499   2.246       .  S
In490       O502   2.238       .  S
C491        O497   1.259       .  A
C491        O499   1.261       .  A
C491        C533   1.434       .  S
O492        C500   1.258       .  A
O493        C500   1.261       .  A
C494        O501   1.259       .  A
C494        O495   1.260       .  A
C496        O498   1.262       .  A
C496        O502   1.262       .  A
C496        C567   1.476       .  S
C500        C540   1.431       .  S
In503       O505   2.230       .  S
In503       O506   2.227       .  S
In503       O514   2.235       .  S
In503       O508   2.235       .  S
In503       O510   2.246       .  S
In503       O511   2.246       .  S
In503       O512   2.238       .  S
In503       O515   2.239       .  S
C504        O510   1.260       .  A
C504        O512   1.259       .  A
C504        C536   1.433   1_655  S
O505        C513   1.259       .  A
O506        C513   1.262       .  A
C507        O514   1.258       .  A
C507        O508   1.261       .  A
C509        O511   1.261       .  A
C509        O515   1.261       .  A
C509        C609   1.476       .  S
C513        C532   1.425       .  S
In516       O518   2.232       .  S
In516       O519   2.237       .  S
In516       O527   2.234       .  S
In516       O521   2.229       .  S
In516       O523   2.240       .  S
In516       O524   2.239       .  S
In516       O525   2.244       .  S
In516       O528   2.234       .  S
C517        O523   1.260       .  A
C517        O525   1.261       .  A
C517        C534   1.434       .  S
O518        C526   1.259       .  A
O519        C526   1.262       .  A
C520        O527   1.258       .  A
C520        O521   1.260       .  A
C520        C531   1.425       .  S
C522        O524   1.263       .  A
C522        O528   1.262       .  A
C522        C549   1.475       .  S
C526        C530   1.430       .  S
C529        C530   1.203   1_554  T
C531        C532   1.200       .  T
C533        C534   1.205       .  T
C535        C536   1.204       .  T
C537        C538   1.202       .  T
C539        C540   1.203       .  T
C543        C544   1.210       .  T
C545        C546   1.411       .  A
C545        C550   1.397       .  A
C545        H551   1.077       .  S
C546        C547   1.409       .  A
C547        C548   1.396       .  A
C547        H552   1.083       .  S
C548        C549   1.402       .  A
C548        H553   1.083       .  S
C549        C550   1.401       .  A
C550        H554   1.083       .  S
C555        C556   1.204       .  T
C557        C558   1.203       .  T
C559        C560   1.211       .  T
C563        C564   1.411       .  A
C563        C568   1.396       .  A
C563        H569   1.081       .  S
C564        C565   1.410       .  A
C565        C566   1.397       .  A
C565        H570   1.081       .  S
C566        C567   1.402       .  A
C566        H571   1.083       .  S
C567        C568   1.402       .  A
C568        H572   1.083       .  S
C573        C574   1.402       .  A
C573        C578   1.395       .  A
C573        H579   1.083       .  S
C574        C575   1.402       .  A
C575        C576   1.399       .  A
C575        H580   1.083       .  S
C576        C577   1.411       .  A
C576        H581   1.078       .  S
C577        C578   1.409       .  A
C578        H582   1.083       .  S
C583        C584   1.201       .  T
C585        C586   1.201       .  T
C587        C588   1.400       .  A
C587        C592   1.396       .  A
C587        H593   1.083       .  S
C588        C589   1.403       .  A
C589        C590   1.398       .  A
C589        H594   1.083       .  S
C590        C591   1.410       .  A
C590        H595   1.077       .  S
C591        C592   1.410       .  A
C592        H596   1.083       .  S
C597        C598   1.204       .  T
C599        C600   1.203   1_655  T
C601        C602   1.204   1_554  T
C603        C604   1.201       .  T
C605        C606   1.411       .  A
C605        C610   1.399       .  A
C605        H611   1.078       .  S
C606        C607   1.409       .  A
C607        C608   1.395       .  A
C607        H612   1.083       .  S
C608        C609   1.401       .  A
C608        H613   1.083       .  S
C609        C610   1.403       .  A
C610        H614   1.083       .  S
C617        C618   1.211       .  T
C619        C620   1.411       .  A
C619        C624   1.399       .  A
C619        H625   1.077       .  S
C620        C621   1.410       .  A
C621        C622   1.396       .  A
C621        H626   1.083       .  S
C622        C623   1.402       .  A
C622        H627   1.083       .  S
C623        C624   1.403       .  A
C624        H628   1.083       .  S
C629        C630   1.204   1_655  T
C631        C632   1.409       .  A
C631        C636   1.395       .  A
C631        H637   1.083       .  S
C632        C633   1.411       .  A
C633        C634   1.400       .  A
C633        H638   1.078       .  S
C634        C635   1.404       .  A
C634        H639   1.083       .  S
C635        C636   1.401       .  A
C636        H640   1.083       .  S
C641        C642   1.205   1_455  T
C645        C646   1.211       .  T
C647        C648   1.408       .  A
C647        C652   1.394       .  A
C647        H653   1.083       .  S
C648        C649   1.412       .  A
C649        C650   1.402       .  A
C649        H654   1.077       .  S
C650        C651   1.404       .  A
C650        H655   1.083       .  S
C651        C652   1.401       .  A
C652        H656   1.083       .  S
