geometry optimzed in LAMMPS
_audit_creation_date              2020-11-30 
_audit_creation_method            'lammps2cif' 
_symmetry_space_group_name_H-M    'P1' 
_symmetry_Int_Tables_number       1 
_symmetry_cell_setting            triclinic 
loop_ 
_symmetry_equiv_pos_as_xyz 
  x,y,z 
_cell_length_a                    53.500697930590334 
_cell_length_b                    30.181749816335767 
_cell_length_c                    52.67814601807723 
_cell_angle_alpha                 90.13712829877119 
_cell_angle_beta                  117.1011486476358 
_cell_angle_gamma                 90.74038585560878 
loop_ 
_atom_site_label 
_atom_site_type_symbol 
_atom_site_fract_x 
_atom_site_fract_y 
_atom_site_fract_z 
_atom_site_charge 
N1          N  0.58407692  0.06371226  0.25485870    -0.26980
N2          N  0.57985434  0.08286057  0.27515558    -0.34840
C3          C  0.55336009  0.07412288  0.27039325     0.01360
C4          C  0.54042662  0.04754139  0.24624958     0.07380
C5          C  0.56042418  0.04229558  0.23674018    -0.05720
H6          H  0.54398328  0.08805659  0.28287238     0.08050
H7          H  0.55773416  0.02501292  0.21763004     0.09250
Cu8        Cu  0.60977317  0.12102457  0.30822166     0.44170
Cu9        Cu  0.62086417  0.06952016  0.25119568     0.41990
Cu10       Cu  0.67566442  0.13531456  0.30500958     0.43880
N11         N  0.64434974  0.15440003  0.33956080    -0.34370
N12         N  0.66854265  0.15816729  0.33853696    -0.28620
C13         C  0.68665065  0.18170823  0.36131502    -0.04720
C14         C  0.67334516  0.19349143  0.37746742     0.07490
C15         C  0.64640441  0.17601938  0.36294671     0.01290
H16         H  0.70763348  0.19146054  0.36518173     0.08940
H17         H  0.62935831  0.17988594  0.36840931     0.08020
N18         N  0.67800179  0.11019901  0.26924253    -0.35820
N19         N  0.65803828  0.08498029  0.24992321    -0.28000
C20         C  0.66592012  0.07218509  0.23020948    -0.03240
C21         C  0.69198771  0.09110867  0.23685300     0.05370
C22         C  0.69898554  0.11470134  0.26200443     0.03460
H23         H  0.65370814  0.04953612  0.21303934     0.08570
H24         H  0.71807508  0.13369290  0.27426581     0.07400
C25         C  0.68507003  0.22526773  0.40154551     0.03440
C26         C  0.68575938  0.26994091  0.39485567    -0.12710
C27         C  0.70938671  0.96357486  0.41157057     0.00940
C28         C  0.72840612  0.28150218  0.43878494    -0.11240
C29         C  0.72634345  0.23814319  0.44712838     0.03430
C30         C  0.70459855  0.21007305  0.42825861    -0.10660
H31         H  0.67021920  0.28081745  0.37418046     0.09020
H32         H  0.74763051  0.96632031  0.45175063     0.06550
H33         H  0.70563828  0.17475312  0.43244728     0.06400
N34         N  0.61883519  0.28110447  0.18296076    -0.26980
N35         N  0.61631985  0.29196587  0.20596830    -0.34840
C36         C  0.58939503  0.28706203  0.20063772     0.01360
C37         C  0.57405075  0.27333631  0.17268434     0.07380
C38         C  0.59335571  0.26929644  0.16212068    -0.05720
H39         H  0.58179519  0.29136146  0.21629454     0.08050
H40         H  0.58939121  0.25675439  0.14134566     0.09250
Cu41       Cu  0.64986597  0.31078490  0.24373333     0.44170
Cu42       Cu  0.65767333  0.27978734  0.18305180     0.41990
Cu43       Cu  0.71910783  0.31955855  0.24899998     0.43880
N44         N  0.68466073  0.33185671  0.27978391    -0.34370
N45         N  0.71027392  0.33587663  0.28224136    -0.28620
C46         C  0.72791650  0.34863711  0.30915328    -0.04720
C47         C  0.71242882  0.35245362  0.32414991     0.07490
C48         C  0.68513110  0.34191135  0.30471926     0.01290
H49         H  0.75045328  0.35199463  0.31758236     0.08940
H50         H  0.66700551  0.33980275  0.30867890     0.08020
N51         N  0.72065842  0.29781181  0.21240631    -0.35820
N52         N  0.69887406  0.28259754  0.18916846    -0.28000
C53         C  0.70757012  0.27144342  0.16980725    -0.03240
C54         C  0.73617832  0.27988752  0.18132271     0.05370
C55         C  0.74363763  0.29711979  0.20824548     0.03460
H56         H  0.69387975  0.25898453  0.14860998     0.08570
H57         H  0.76403116  0.30972020  0.22340642     0.07400
C58         C  0.72274750  0.02352164  0.35518941     0.03440
C59         C  0.70964543  0.99791440  0.36802848    -0.12710
C60         C  0.71866956  0.99925559  0.39765363     0.00940
C61         C  0.74064756  0.02898880  0.41394640    -0.11240
C62         C  0.75527526  0.05223582  0.40166657     0.03430
C63         C  0.74620610  0.04993583  0.37222445    -0.10660
H64         H  0.69381558  0.30756898  0.35465475     0.09020
H65         H  0.74779366  0.03254124  0.43665363     0.06550
H66         H  0.75740236  0.06819391  0.36277582     0.06400
N67         N  0.84409157  0.28422924  0.11642778    -0.26980
N68         N  0.82638938  0.31023016  0.09652721    -0.34840
C69         C  0.80359249  0.31556961  0.10056462     0.01360
C70         C  0.80634878  0.29015796  0.12367989     0.07380
C71         C  0.83268181  0.27110615  0.13324491    -0.05720
H72         H  0.78670409  0.33689023  0.08747799     0.08050
H73         H  0.84296145  0.24913186  0.15111863     0.09250
Cu74       Cu  0.83349315  0.33293444  0.06347764     0.44170
Cu75       Cu  0.88327067  0.27134557  0.11968939     0.41990
Cu76       Cu  0.89701563  0.30324397  0.05930433     0.43880
N77         N  0.84125164  0.01364523  0.02939533    -0.34370
N78         N  0.86424130  0.00372849  0.02727540    -0.28620
C79         C  0.86243189  0.02088702  0.00281513    -0.04720
C80         C  0.83689759  0.04190478  0.98908210     0.07490
C81         C  0.82416562  0.03657874  0.00649572     0.01290
H82         H  0.87874458  0.01942269  0.99611745     0.08940
H83         H  0.80428008  0.05004680  0.00325625     0.08020
N84         N  0.92638767  0.27616441  0.09738035    -0.35820
N85         N  0.92165683  0.26695126  0.11932495    -0.28000
C86         C  0.94568828  0.25423068  0.14132973    -0.03240
C87         C  0.96678110  0.25400117  0.13287543     0.05450
C88         C  0.95349940  0.26843299  0.10478223     0.03460
H89         H  0.94713399  0.24710552  0.16189609     0.08570
H90         H  0.96293657  0.27340965  0.09067882     0.07400
C91         C  0.82549585  0.07015194  0.46377605     0.03440
C92         C  0.80453573  0.05141355  0.43864194    -0.12710
C93         C  0.78111936  0.07624870  0.42081936     0.00940
C94         C  0.77880292  0.11982427  0.42839238    -0.11240
C95         C  0.79947798  0.13844432  0.45403199     0.03430
C96         C  0.82462139  0.11541765  0.46910034    -0.10660
H97         H  0.80399947  0.01577443  0.43547441     0.09020
H98         H  0.75868786  0.13562981  0.41686775     0.06550
H99         H  0.84057432  0.12908572  0.48905584     0.06400
N100        N  0.87420327  0.04796883  0.16822825    -0.26980
N101        N  0.87716070  0.06124529  0.14595475    -0.34840
C102        C  0.90264818  0.04986753  0.14931731     0.01360
C103        C  0.91706822  0.02897420  0.17546241     0.07380
C104        C  0.89813400  0.02896380  0.18688994    -0.05720
H105        H  0.91038279  0.05771237  0.13411172     0.08050
H106        H  0.90150147  0.01817489  0.20762838     0.09250
Cu107      Cu  0.84773244  0.09997779  0.11457438     0.44170
Cu108      Cu  0.83748723  0.05873501  0.17133071     0.41990
Cu109      Cu  0.78289820  0.12858354  0.11529885     0.43880
N110        N  0.81742683  0.13908029  0.08429980    -0.34370
N111        N  0.79280430  0.14843169  0.08293159    -0.28620
C112        C  0.77703936  0.16857600  0.05778333    -0.04720
C113        C  0.79271002  0.17181535  0.04276477     0.07490
C114        C  0.81833831  0.15351968  0.06078856     0.01290
H115        H  0.75530490  0.17748261  0.05025389     0.08940
H116        H  0.83609424  0.14846669  0.05660008     0.08020
N117        N  0.78056559  0.10196206  0.15081087    -0.35820
N118        N  0.79934880  0.07560997  0.16981783    -0.28000
C119        C  0.79057849  0.06357103  0.18904308    -0.03240
C120        C  0.76549356  0.08442195  0.18260281     0.05370
C121        C  0.75971837  0.10799201  0.15797733     0.03460
H122        H  0.80172509  0.04073674  0.20607299     0.08570
H123        H  0.74167668  0.12850587  0.14620431     0.07400
C124        C  0.78356732  0.18299355  0.01227785     0.03440
C125        C  0.75995276  0.20900826  0.49594581    -0.12710
C126        C  0.75260662  0.21700993  0.46704070     0.00940
C127        C  0.76894093  0.20004082  0.45482667    -0.11240
C128        C  0.79041588  0.17048856  0.46972058     0.03430
C129        C  0.79793476  0.16330494  0.49860436    -0.10660
H130        H  0.74726368  0.22214708  0.50531432     0.09020
H131        H  0.76284977  0.20636461  0.43253026     0.06550
H132        H  0.81335814  0.13860785  0.50993015     0.06400
N133        N  0.34183204  0.15878728  0.11251662    -0.26980
N134        N  0.32234720  0.13550454  0.09139689    -0.34840
C135        C  0.30008089  0.12947884  0.09644534     0.01360
C136        C  0.30523997  0.15123302  0.12167162     0.07380
C137        C  0.33220188  0.16904185  0.13131719    -0.05720
H138        H  0.28191345  0.10975312  0.08286493     0.08050
H139        H  0.34403099  0.18818622  0.15063215     0.09250
Cu140      Cu  0.32687558  0.11437188  0.05632686     0.44170
Cu141      Cu  0.38061594  0.17401723  0.11428305     0.41990
Cu142      Cu  0.39232069  0.13471485  0.05390700     0.43880
N143        N  0.33474093  0.09370684  0.02317552    -0.34370
N144        N  0.35888282  0.09923429  0.02227146    -0.28620
C145        C  0.35755506  0.07714222  0.99930919    -0.04720
C146        C  0.33110318  0.05764509  0.48505746     0.07490
C147        C  0.31736999  0.06881037  0.00082713     0.01290
H148        H  0.37478134  0.07419919  0.49403616     0.08940
H149        H  0.29670924  0.05748076  0.49715919     0.08020
N150        N  0.42163843  0.17034001  0.08912979    -0.35820
N151        N  0.41758423  0.18367329  0.11094233    -0.28000
C152        C  0.44114173  0.20401630  0.13030797    -0.03240
C153        C  0.46079665  0.20372773  0.12015877     0.05370
C154        C  0.44779916  0.18230380  0.09402958     0.03460
H155        H  0.44394775  0.21738192  0.15050805     0.08570
H156        H  0.45685446  0.17524145  0.07984705     0.07400
C157        C  0.32006470  0.02489712  0.46156041     0.03440
C158        C  0.32095263  0.31352859  0.46900151    -0.12710
C159        C  0.29832949  0.28445105  0.45274244     0.00940
C160        C  0.27815020  0.29872596  0.42566469    -0.11240
C161        C  0.27821786  0.00904828  0.41699558     0.03430
C162        C  0.29937457  0.03865303  0.43501719    -0.10660
H163        H  0.33693267  0.30394155  0.48978890     0.09020
H164        H  0.25947472  0.27909524  0.41309816     0.06550
H165        H  0.29706127  0.07384752  0.43040200     0.06400
N166        N  0.37760893  0.99593492  0.17327411    -0.26980
N167        N  0.38226914  0.30071679  0.15691806    -0.34840
C168        C  0.40979370  0.96635081  0.16462461     0.01360
C169        C  0.42328665  0.99642000  0.18652377     0.07380
C170        C  0.40237020  0.01416266  0.19190137    -0.05720
H171        H  0.41904816  0.27856919  0.15475871     0.08050
H172        H  0.40492875  0.03895172  0.20782687     0.09250
Cu173      Cu  0.35165003  0.26806847  0.12247197     0.44170
Cu174      Cu  0.33757334  0.33999772  0.16906274     0.41990
Cu175      Cu  0.28145091  0.27883576  0.10846233     0.43880
N176        N  0.31897734  0.24922762  0.08428424    -0.34370
N177        N  0.29244369  0.25320288  0.07863289    -0.28620
C178        C  0.27606950  0.24197748  0.05118111    -0.04720
C179        C  0.29335611  0.23050122  0.03920089     0.07490
C180        C  0.32040852  0.23576064  0.06073693     0.01290
H181        H  0.25346177  0.24487809  0.04030484     0.08940
H182        H  0.33970824  0.23227454  0.05906224     0.08020
N183        N  0.27729649  0.30653892  0.14222353    -0.35820
N184        N  0.29666749  0.33056098  0.16312829    -0.28000
C185        C  0.28698544  0.34094061  0.18185725    -0.03240
C186        C  0.26035918  0.32226902  0.17245990     0.05370
C187        C  0.25519219  0.30029044  0.14742511     0.03460
H188        H  0.29914589  0.02523127  0.20174633     0.08570
H189        H  0.23766637  0.27859134  0.13481972     0.07400
C190        C  0.28517715  0.22429649  0.50879118     0.03440
C191        C  0.29939535  0.24873200  0.49660830    -0.12710
C192        C  0.29068560  0.24726432  0.46699491     0.00940
C193        C  0.26927175  0.21671803  0.45064106    -0.11240
C194        C  0.25360224  0.19499973  0.46227513     0.03430
C195        C  0.26158663  0.19851182  0.49138787    -0.10660
H196        H  0.31539197  0.27201128  0.51028555     0.09020
H197        H  0.26278678  0.21247977  0.42808814     0.06550
H198        H  0.24930452  0.18196290  0.50029887     0.06400
N199        N  0.12729882  0.18279092  0.19315107    -0.26980
N200        N  0.12343684  0.16834941  0.21469608    -0.34840
C201        C  0.09824342  0.18133496  0.21134019     0.01360
C202        C  0.08487309  0.20452456  0.18593981     0.07380
C203        C  0.10416811  0.20423113  0.17494437    -0.05720
H204        H  0.09004477  0.17325899  0.22613647     0.08050
H205        H  0.10160422  0.21674061  0.15481933     0.09250
Cu206      Cu  0.15121691  0.12721379  0.24573328     0.44170
Cu207      Cu  0.16428766  0.17141594  0.19053503     0.41990
Cu208      Cu  0.21703061  0.10144730  0.24718225     0.43880
N209        N  0.18151735  0.08929858  0.27691904    -0.34370
N210        N  0.20656436  0.08165514  0.27886913    -0.28620
C211        C  0.22299862  0.06461158  0.30478296    -0.04720
C212        C  0.20735757  0.06125011  0.31970109     0.07490
C213        C  0.18103396  0.07651282  0.30098543     0.01290
H214        H  0.24527115  0.05914458  0.31310506     0.08940
H215        H  0.16338806  0.08170773  0.30534456     0.08020
N216        N  0.22161854  0.12889794  0.21340881    -0.35820
N217        N  0.20337542  0.15529986  0.19393675    -0.28000
C218        C  0.21366822  0.16792047  0.17604488    -0.03240
C219        C  0.23957694  0.14853823  0.18449084     0.05370
C220        C  0.24364110  0.12342586  0.20800523     0.03460
H221        H  0.20281968  0.18916913  0.15785590     0.08570
H222        H  0.26066352  0.10128633  0.21980072     0.07400
C223        C  0.21766247  0.05501516  0.35077320     0.03440
C224        C  0.20433367  0.07827286  0.36422745    -0.12710
C225        C  0.21368716  0.07626723  0.39381712     0.00940
C226        C  0.23550139  0.04735781  0.40944273    -0.11240
C227        C  0.25106166  0.36120641  0.39714406     0.03430
C228        C  0.24196221  0.03091083  0.36762868    -0.10660
H229        H  0.18841278  0.10158751  0.35172400     0.09020
H230        H  0.24257666  0.04348413  0.43211561     0.06550
H231        H  0.25390173  0.34886008  0.35810857     0.06400
N232        N  0.16040872  0.30332452  0.24619106    -0.26980
N233        N  0.18075166  0.28402920  0.26810756    -0.34840
C234        C  0.20341125  0.28132600  0.26349619     0.01360
C235        C  0.19746474  0.30126958  0.23756966     0.07380
C236        C  0.16975343  0.31467772  0.22739100    -0.05720
H237        H  0.22227412  0.26506699  0.27800117     0.08050
H238        H  0.15702411  0.99802466  0.20759329     0.09250
Cu239      Cu  0.17609878  0.26421511  0.30324173     0.44170
Cu240      Cu  0.12046398  0.30946579  0.24232972     0.41990
Cu241      Cu  0.10824190  0.27710201  0.30287346     0.43880
N242        N  0.16753185  0.24642301  0.33637015    -0.34370
N243        N  0.14284251  0.24899673  0.33632356    -0.28620
C244        C  0.14435996  0.22878144  0.35983633    -0.04720
C245        C  0.17149631  0.21396028  0.37547384     0.07490
C246        C  0.18544033  0.22561809  0.35994402     0.01290
H247        H  0.12684158  0.22371532  0.36451743     0.08940
H248        H  0.20663707  0.21688527  0.36454417     0.08020
N249        N  0.07762426  0.30164189  0.26456285    -0.35820
N250        N  0.08190473  0.31091317  0.24236730    -0.28000
C251        C  0.05749062  0.98879222  0.22030421    -0.03240
C252        C  0.03656629  0.98802041  0.22900129     0.05370
C253        C  0.05039132  0.30789360  0.25729886     0.03460
H254        H  0.05570728  0.99573225  0.19957639     0.08570
H255        H  0.04126663  0.30266455  0.27165157     0.07400
C256        C  0.18319024  0.18367861  0.39975632     0.03440
C257        C  0.20479464  0.20043648  0.42511673    -0.12710
C258        C  0.22706005  0.17343920  0.44257144     0.00940
C259        C  0.22764744  0.12956991  0.43457821    -0.11240
C260        C  0.20636339  0.11237353  0.40872036     0.03430
C261        C  0.18251029  0.13845746  0.39338281    -0.10660
H262        H  0.20657827  0.23597699  0.42900977     0.09020
H263        H  0.24701957  0.11202354  0.44640448     0.06550
H264        H  0.16580732  0.12639637  0.37341293     0.06400
C265        C  0.25858776  0.31454357  0.21832411    -0.05470
C266        C  0.24379787  0.31902112  0.18864064     0.00450
C267        C  0.21407635  0.31884059  0.17546598    -0.08120
C268        C  0.20041949  0.31038666  0.19227616    -0.05490
C269        C  0.21501112  0.30608502  0.22214278     0.00440
C270        C  0.24494531  0.30915254  0.23554409    -0.08030
C271        C  0.26317138  0.30660802  0.26755939     0.62350
H272        H  0.28128868  0.31428111  0.22807214     0.13050
H273        H  0.17778158  0.30721090  0.18166153     0.13060
C274        C  0.19613533  0.32851646  0.14402950     0.62590
F275        F  0.29043684  0.32102862  0.27550151    -0.22580
F276        F  0.26440004  0.26316617  0.27622048    -0.19910
F277        F  0.25268177  0.99995468  0.28167310    -0.19590
F278        F  0.19107536  0.28980155  0.12828222    -0.19640
F279        F  0.20909038  0.35955005  0.13447507    -0.19960
F280        F  0.17049639  0.34566786  0.13928155    -0.22640
C281        C  0.30136164  0.15463389  0.16683473    -0.05470
C282        C  0.28743808  0.15252993  0.13683782     0.00450
C283        C  0.25751866  0.15241698  0.12281843    -0.08120
C284        C  0.24309963  0.14992846  0.13939634    -0.05490
C285        C  0.25709978  0.15077411  0.16927377     0.00440
C286        C  0.28677272  0.15533448  0.18331285    -0.08030
C287        C  0.30334958  0.16227462  0.21534555     0.62350
H288        H  0.32407588  0.15521436  0.17762479     0.13050
H289        H  0.22039707  0.14710561  0.12884545     0.13060
C290        C  0.24002857  0.15597157  0.09074935     0.62590
F291        F  0.32976042  0.18015281  0.22271665    -0.22580
F292        F  0.30679267  0.12217926  0.22902908    -0.19910
F293        F  0.28969999  0.19138087  0.22498693    -0.19590
F294        F  0.23607960  0.11444977  0.07829919    -0.19640
F295        F  0.25279874  0.18402405  0.07940554    -0.19960
F296        F  0.21384834  0.17321069  0.08381598    -0.22640
C297        C  0.98785320  0.30674093  0.22079507    -0.05470
C298        C  0.00579808  0.99703552  0.21261829     0.00450
C299        C  0.99396236  0.02958279  0.19100718    -0.08120
C300        C  0.96521882  0.03896921  0.18029136    -0.05490
C301        C  0.94733764  0.01584521  0.18887139     0.00440
C302        C  0.95883907  0.31440723  0.20891027    -0.08030
C303        C  0.94140301  0.28473954  0.21822752     0.62350
H304        H  0.99678595  0.28141480  0.23683863     0.13050
H305        H  0.95649627  0.06519114  0.16493506     0.13060
C306        C  0.01082427  0.05467602  0.17879056     0.62590
F307        F  0.95512068  0.24581379  0.23014070    -0.22580
F308        F  0.91619839  0.27295312  0.19519122    -0.19910
F309        F  0.93663936  0.30641389  0.23871050    -0.19590
F310        F  0.01807088  0.02606005  0.16288514    -0.19640
F311        F  0.03464738  0.07383617  0.20043349    -0.19960
F312        F  0.99558000  0.08807958  0.16058999    -0.22640
C313        C  0.01596175  0.26592753  0.14176922    -0.05470
C314        C  0.99726321  0.24312452  0.14930272     0.00450
C315        C  0.00806262  0.20945880  0.17025906    -0.08120
C316        C  0.03643796  0.19790860  0.18073322    -0.05490
C317        C  0.05508509  0.22013895  0.17278585     0.00440
C318        C  0.04473626  0.25627279  0.15363619    -0.08030
C319        C  0.06312773  0.28526366  0.14519518     0.62350
H320        H  0.00781454  0.29209689  0.12621512     0.13050
H321        H  0.04422051  0.17062288  0.19538106     0.13060
C322        C  0.99047303  0.18541465  0.18204639     0.62590
F323        F  0.05055870  0.99197320  0.13414584    -0.22580
F324        F  0.06750205  0.26398612  0.12434081    -0.19910
F325        F  0.08850500  0.29493299  0.16860970    -0.19590
F326        F  0.96627846  0.16773023  0.16010544    -0.19640
F327        F  0.98385436  0.21448832  0.19820174    -0.19960
F328        F  0.00477403  0.15109914  0.19991943    -0.22640
C329        C  0.49515808  0.26385794  0.12680294    -0.05470
C330        C  0.48978612  0.22161574  0.13446513     0.00450
C331        C  0.51202712  0.19699907  0.15517691    -0.08120
C332        C  0.53926971  0.21545397  0.16747045    -0.05490
C333        C  0.54474965  0.25713197  0.15932579     0.00440
C334        C  0.52252253  0.28223469  0.13905497    -0.08030
C335        C  0.52786023  0.32822770  0.13080674     0.62350
H336        H  0.47774713  0.28220245  0.11105425     0.13050
H337        H  0.55670565  0.19708536  0.18317610     0.13060
C338        C  0.50710307  0.15072126  0.16325078     0.62590
F339        F  0.50331620  0.01432262  0.11131275    -0.22580
F340        F  0.54595863  0.32573717  0.11871756    -0.19910
F341        F  0.53981983  0.02185092  0.15480721    -0.19590
F342        F  0.49708662  0.12376554  0.13930632    -0.19640
F343        F  0.48770097  0.15168791  0.17379035    -0.19960
F344        F  0.53151607  0.13249191  0.18388222    -0.22640
C345        C  0.79872248  0.27235482  0.16569830    -0.05470
C346        C  0.78685433  0.28518497  0.13687994     0.00450
C347        C  0.75717771  0.29095473  0.12202819    -0.08120
C348        C  0.74165109  0.28896388  0.13753714    -0.05490
C349        C  0.75384208  0.27726702  0.16636349     0.00440
C350        C  0.78246422  0.26548301  0.18008728    -0.08030
C351        C  0.79637785  0.24410819  0.20926535     0.62350
H352        H  0.82106280  0.26690809  0.17731787     0.13050
H353        H  0.71963128  0.29735192  0.12708199     0.13060
C354        C  0.74097843  0.29870513  0.09014117     0.62590
F355        F  0.81601089  0.21371077  0.21033824    -0.22580
F356        F  0.77714920  0.22127924  0.21529007    -0.19910
F357        F  0.80990896  0.27627983  0.22991684    -0.19590
F358        F  0.75116558  0.27267995  0.07538123    -0.19640
F359        F  0.74262453  0.00970700  0.08448420    -0.19960
F360        F  0.71282111  0.28755934  0.07994279    -0.22640
C361        C  0.49604297  0.03856005  0.20188679    -0.05470
C362        C  0.51071430  0.03234948  0.23148199     0.00450
C363        C  0.49705403  0.01084364  0.24577727    -0.08120
C364        C  0.46831931  0.00014702  0.23026733    -0.05490
C365        C  0.45353498  0.00761871  0.20091243     0.00440
C366        C  0.46766433  0.02588423  0.18613922    -0.08030
C367        C  0.45283497  0.03289196  0.15407945     0.62350
H368        H  0.50703417  0.05373691  0.19115393     0.13050
H369        H  0.45716477  0.31859547  0.24094539     0.13060
C370        C  0.51273593  0.33038398  0.27676865     0.62590
F371        F  0.46967941  0.05534596  0.14471805    -0.22580
F372        F  0.42880924  0.05726750  0.14662231    -0.19910
F373        F  0.44582013  0.99251409  0.14001127    -0.19590
F374        F  0.51812423  0.03354617  0.29443223    -0.19640
F375        F  0.53776732  0.31068571  0.28180584    -0.19960
F376        F  0.49728604  0.30001106  0.28375196    -0.22640
C377        C  0.73916561  0.08568815  0.23921255    -0.05470
C378        C  0.70992267  0.08604664  0.22202427     0.00450
C379        C  0.69930390  0.08440681  0.19185381    -0.08120
C380        C  0.71843570  0.08159450  0.18041488    -0.05490
C381        C  0.74762086  0.08235486  0.19757511     0.00440
C382        C  0.75830750  0.08486349  0.22768797    -0.08030
C383        C  0.78952850  0.08825161  0.24797407     0.62350
H384        H  0.74709837  0.08628397  0.26213371     0.13050
H385        H  0.71057649  0.07915758  0.15753247     0.13060
C386        C  0.66822411  0.08698526  0.17121449     0.62590
F387        F  0.79443073  0.10103442  0.27513791    -0.22580
F388        F  0.80240454  0.11949258  0.23847604    -0.19910
F389        F  0.80172065  0.04748061  0.25011282    -0.19590
F390        F  0.65567956  0.11977652  0.17963137    -0.19640
F391        F  0.65532017  0.04650329  0.16987065    -0.19960
F392        F  0.66387995  0.09709998  0.14388827    -0.22640
N393        N  0.58407693  0.06371226  0.75485871    -0.26980
N394        N  0.57985435  0.08286057  0.77515559    -0.34840
C395        C  0.55336009  0.07412287  0.77039326     0.01360
C396        C  0.54042663  0.04754137  0.74624960     0.07380
C397        C  0.56042419  0.04229556  0.73674020    -0.05720
H398        H  0.54398329  0.08805659  0.78287239     0.08050
H399        H  0.55773417  0.02501290  0.71763006     0.09250
Cu400      Cu  0.60977317  0.12102458  0.80822166     0.44170
Cu401      Cu  0.62086417  0.06952017  0.75119568     0.41990
Cu402      Cu  0.67566442  0.13531457  0.80500958     0.43880
N403        N  0.64434975  0.15440003  0.83956080    -0.34370
N404        N  0.66854265  0.15816729  0.83853696    -0.28620
C405        C  0.68665066  0.18170823  0.86131503    -0.04720
C406        C  0.67334517  0.19349142  0.87746743     0.07490
C407        C  0.64640441  0.17601938  0.86294672     0.01290
H408        H  0.70763349  0.19146054  0.86518174     0.08940
H409        H  0.62935831  0.17988594  0.86840931     0.08020
N410        N  0.67800179  0.11019902  0.76924253    -0.35820
N411        N  0.65803828  0.08498030  0.74992321    -0.28000
C412        C  0.66592012  0.07218511  0.73020948    -0.03240
C413        C  0.69198771  0.09110868  0.73685300     0.05370
C414        C  0.69898554  0.11470135  0.76200443     0.03460
H415        H  0.65370814  0.04953613  0.71303934     0.08570
H416        H  0.71807509  0.13369290  0.77426581     0.07400
C417        C  0.68507003  0.22526773  0.90154552     0.03440
C418        C  0.68575938  0.26994090  0.89485567    -0.12710
C419        C  0.70938665  0.96357496  0.91157054     0.00940
C420        C  0.72840612  0.28150218  0.93878495    -0.11240
C421        C  0.72634345  0.23814319  0.94712838     0.03430
C422        C  0.70459856  0.21007305  0.92825862    -0.10660
H423        H  0.67021920  0.28081744  0.87418046     0.09020
H424        H  0.74763044  0.96632041  0.95175061     0.06550
H425        H  0.70563829  0.17475312  0.93244729     0.06400
N426        N  0.61883519  0.28110442  0.68296075    -0.26980
N427        N  0.61631984  0.29196583  0.70596829    -0.34840
C428        C  0.58939503  0.28706200  0.70063770     0.01360
C429        C  0.57405075  0.27333627  0.67268432     0.07380
C430        C  0.59335571  0.26929640  0.66212067    -0.05720
H431        H  0.58179518  0.29136145  0.71629452     0.08050
H432        H  0.58939121  0.25675436  0.64134564     0.09250
Cu433      Cu  0.64986596  0.31078485  0.74373331     0.44170
Cu434      Cu  0.65767333  0.27978729  0.68305179     0.41990
Cu435      Cu  0.71910782  0.31955851  0.74899997     0.43880
N436        N  0.68466072  0.33185666  0.77978389    -0.34370
N437        N  0.71027391  0.33587659  0.78224134    -0.28620
C438        C  0.72791649  0.34863706  0.80915326    -0.04720
C439        C  0.71242882  0.35245356  0.82414990     0.07490
C440        C  0.68513110  0.34191129  0.80471925     0.01290
H441        H  0.75045328  0.35199458  0.81758234     0.08940
H442        H  0.66700551  0.33980269  0.80867889     0.08020
N443        N  0.72065841  0.29781177  0.71240630    -0.35820
N444        N  0.69887406  0.28259750  0.68916844    -0.28000
C445        C  0.70757012  0.27144338  0.66980724    -0.03240
C446        C  0.73617831  0.27988749  0.68132269     0.05370
C447        C  0.74363762  0.29711976  0.70824547     0.03460
H448        H  0.69387975  0.25898449  0.64860996     0.08570
H449        H  0.76403115  0.30972017  0.72340640     0.07400
C450        C  0.72274749  0.02352167  0.85518939     0.03440
C451        C  0.70964540  0.99791447  0.86802845    -0.12710
C452        C  0.71866951  0.99925567  0.89765360     0.00940
C453        C  0.74064752  0.02898887  0.91394637    -0.11240
C454        C  0.75527524  0.05223586  0.90166655     0.03430
C455        C  0.74620610  0.04993585  0.87222443    -0.10660
H456        H  0.69381557  0.30756895  0.85465474     0.09020
H457        H  0.74779361  0.03254133  0.93665360     0.06550
H458        H  0.75740237  0.06819391  0.86277581     0.06400
N459        N  0.84409157  0.28422923  0.61642777    -0.26980
N460        N  0.82638938  0.31023016  0.59652720    -0.34840
C461        C  0.80359248  0.31556960  0.60056461     0.01360
C462        C  0.80634877  0.29015794  0.62367988     0.07380
C463        C  0.83268181  0.27110613  0.63324490    -0.05720
H464        H  0.78670408  0.33689023  0.58747798     0.08050
H465        H  0.84296145  0.24913184  0.65111861     0.09250
Cu466      Cu  0.83349315  0.33293445  0.56347764     0.44170
Cu467      Cu  0.88327067  0.27134558  0.61968937     0.41990
Cu468      Cu  0.89701564  0.30324403  0.55930433     0.43880
N469        N  0.84125167  0.01364527  0.52939535    -0.34370
N470        N  0.86424132  0.00372852  0.52727542    -0.28620
C471        C  0.86243191  0.02088704  0.50281514    -0.04720
C472        C  0.83689761  0.04190481  0.48908212     0.07490
C473        C  0.82416565  0.03657878  0.50649575     0.01290
H474        H  0.87874459  0.01942269  0.49611746     0.08940
H475        H  0.80428010  0.05004685  0.50325628     0.08020
N476        N  0.92638768  0.27616446  0.59738035    -0.35820
N477        N  0.92165683  0.26695128  0.61932495    -0.28000
C478        C  0.94568827  0.25423070  0.64132972    -0.03240
C479        C  0.96678110  0.25400121  0.63287543     0.05450
C480        C  0.95349941  0.26843305  0.60478224     0.03460
H481        H  0.94713398  0.24710552  0.66189608     0.08570
H482        H  0.96293658  0.27340971  0.59067883     0.07400
C483        C  0.82549584  0.07015192  0.96377604     0.03440
C484        C  0.80453571  0.05141355  0.93864193    -0.12710
C485        C  0.78111935  0.07624872  0.92081934     0.00940
C486        C  0.77880292  0.11982429  0.92839238    -0.11240
C487        C  0.79947798  0.13844432  0.95403199     0.03430
C488        C  0.82462138  0.11541763  0.96910034    -0.10660
H489        H  0.80399944  0.01577443  0.93547439     0.09020
H490        H  0.75868786  0.13562984  0.91686774     0.06550
H491        H  0.84057431  0.12908568  0.98905584     0.06400
N492        N  0.87420327  0.04796885  0.66822826    -0.26980
N493        N  0.87716070  0.06124530  0.64595475    -0.34840
C494        C  0.90264818  0.04986755  0.64931731     0.01360
C495        C  0.91706823  0.02897423  0.67546241     0.07380
C496        C  0.89813400  0.02896383  0.68688995    -0.05720
H497        H  0.91038279  0.05771239  0.63411172     0.08050
H498        H  0.90150148  0.01817493  0.70762839     0.09250
Cu499      Cu  0.84773244  0.09997780  0.61457438     0.44170
Cu500      Cu  0.83748724  0.05873502  0.67133071     0.41990
Cu501      Cu  0.78289820  0.12858354  0.61529884     0.43880
N502        N  0.81742683  0.13908029  0.58429980    -0.34370
N503        N  0.79280430  0.14843169  0.58293159    -0.28620
C504        C  0.77703935  0.16857600  0.55778333    -0.04720
C505        C  0.79271001  0.17181535  0.54276477     0.07490
C506        C  0.81833831  0.15351968  0.56078856     0.01290
H507        H  0.75530489  0.17748261  0.55025389     0.08940
H508        H  0.83609423  0.14846669  0.55660008     0.08020
N509        N  0.78056559  0.10196206  0.65081087    -0.35820
N510        N  0.79934880  0.07560997  0.66981783    -0.28000
C511        C  0.79057850  0.06357104  0.68904308    -0.03240
C512        C  0.76549356  0.08442195  0.68260281     0.05370
C513        C  0.75971837  0.10799200  0.65797733     0.03460
H514        H  0.80172509  0.04073674  0.70607299     0.08570
H515        H  0.74167667  0.12850586  0.64620431     0.07400
C516        C  0.78356731  0.18299355  0.51227784     0.03440
C517        C  0.75995276  0.20900826  0.99594581    -0.12710
C518        C  0.75260663  0.21700993  0.96704071     0.00940
C519        C  0.76894094  0.20004083  0.95482668    -0.11240
C520        C  0.79041589  0.17048856  0.96972059     0.03430
C521        C  0.79793476  0.16330494  0.99860437    -0.10660
H522        H  0.74726369  0.22214708  0.00531432     0.09020
H523        H  0.76284978  0.20636462  0.93253027     0.06550
H524        H  0.81335814  0.13860784  0.00993015     0.06400
N525        N  0.34183203  0.15878731  0.61251663    -0.26980
N526        N  0.32234720  0.13550454  0.59139691    -0.34840
C527        C  0.30008090  0.12947883  0.59644536     0.01360
C528        C  0.30523997  0.15123303  0.62167164     0.07380
C529        C  0.33220188  0.16904188  0.63131720    -0.05720
H530        H  0.28191346  0.10975310  0.58286496     0.08050
H531        H  0.34403098  0.18818627  0.65063215     0.09250
Cu532      Cu  0.32687558  0.11437187  0.55632688     0.44170
Cu533      Cu  0.38061592  0.17401730  0.61428304     0.41990
Cu534      Cu  0.39232064  0.13471501  0.55390695     0.43880
N535        N  0.33474092  0.09370685  0.52317552    -0.34370
N536        N  0.35888279  0.09923438  0.52227144    -0.28620
C537        C  0.35755503  0.07714232  0.49930917    -0.04720
C538        C  0.33110318  0.05764507  0.98505745     0.07490
C539        C  0.31736999  0.06881034  0.50082715     0.01290
H540        H  0.37478138  0.07419904  0.99403621     0.08940
H541        H  0.29670923  0.05748085  0.99715915     0.08020
N542        N  0.42163838  0.17034017  0.58912973    -0.35820
N543        N  0.41758419  0.18367341  0.61094229    -0.28000
C544        C  0.44114170  0.20401641  0.63030793    -0.03240
C545        C  0.46079660  0.20372788  0.62015871     0.05370
C546        C  0.44779911  0.18230397  0.59402951     0.03460
H547        H  0.44394773  0.21738198  0.65050803     0.08570
H548        H  0.45685440  0.17524163  0.57984697     0.07400
C549        C  0.32006469  0.02489710  0.96156040     0.03440
C550        C  0.32095262  0.31352856  0.96900147    -0.12710
C551        C  0.29832948  0.28445101  0.95274242     0.00940
C552        C  0.27815018  0.29872591  0.92566466    -0.11240
C553        C  0.27821784  0.00904827  0.91699557     0.03430
C554        C  0.29937456  0.03865302  0.93501718    -0.10660
H555        H  0.33693265  0.30394154  0.98978887     0.09020
H556        H  0.25947470  0.27909519  0.91309814     0.06550
H557        H  0.29706125  0.07384751  0.93040200     0.06400
N558        N  0.37760894  0.99593489  0.67327412    -0.26980
N559        N  0.38226911  0.30071672  0.65691809    -0.34840
C560        C  0.40979372  0.96635078  0.66462462     0.01360
C561        C  0.42328666  0.99641997  0.68652379     0.07380
C562        C  0.40237021  0.01416263  0.69190138    -0.05720
H563        H  0.41904814  0.27856918  0.65475872     0.08050
H564        H  0.40492876  0.03895169  0.70782688     0.09250
Cu565      Cu  0.35165001  0.26806844  0.62247198     0.44170
Cu566      Cu  0.33757330  0.33999764  0.66906275     0.41990
Cu567      Cu  0.28145088  0.27883570  0.60846232     0.43880
N568        N  0.31897732  0.24922760  0.58428424    -0.34370
N569        N  0.29244367  0.25320285  0.57863289    -0.28620
C570        C  0.27606948  0.24197746  0.55118111    -0.04720
C571        C  0.29335610  0.23050121  0.53920089     0.07490
C572        C  0.32040851  0.23576064  0.56073693     0.01290
H573        H  0.25346176  0.24487805  0.54030483     0.08940
H574        H  0.33970823  0.23227455  0.55906225     0.08020
N575        N  0.27729645  0.30653885  0.64222352    -0.35820
N576        N  0.29666745  0.33056091  0.66312829    -0.28000
C577        C  0.28698540  0.34094054  0.68185725    -0.03240
C578        C  0.26035915  0.32226894  0.67245990     0.05370
C579        C  0.25519216  0.30029036  0.64742511     0.03460
H580        H  0.29914590  0.02523129  0.70174633     0.08570
H581        H  0.23766633  0.27859126  0.63481972     0.07400
C582        C  0.28517715  0.22429648  0.00879118     0.03440
C583        C  0.29939535  0.24873199  0.99660829    -0.12710
C584        C  0.29068559  0.24726429  0.96699491     0.00940
C585        C  0.26927174  0.21671799  0.95064106    -0.11240
C586        C  0.25360224  0.19499971  0.96227514     0.03430
C587        C  0.26158664  0.19851182  0.99138788    -0.10660
H588        H  0.31539197  0.27201127  0.01028553     0.09020
H589        H  0.26278678  0.21247973  0.92808815     0.06550
H590        H  0.24930452  0.18196290  0.00029889     0.06400
N591        N  0.12729881  0.18279093  0.69315107    -0.26980
N592        N  0.12343683  0.16834941  0.71469608    -0.34840
C593        C  0.09824341  0.18133495  0.71134019     0.01360
C594        C  0.08487309  0.20452457  0.68593982     0.07380
C595        C  0.10416811  0.20423115  0.67494438    -0.05720
H596        H  0.09004476  0.17325897  0.72613647     0.08050
H597        H  0.10160422  0.21674065  0.65481934     0.09250
Cu598      Cu  0.15121690  0.12721377  0.74573328     0.44170
Cu599      Cu  0.16428766  0.17141596  0.69053505     0.41990
Cu600      Cu  0.21703060  0.10144731  0.74718225     0.43880
N601        N  0.18151734  0.08929856  0.77691903    -0.34370
N602        N  0.20656435  0.08165513  0.77886912    -0.28620
C603        C  0.22299861  0.06461158  0.80478296    -0.04720
C604        C  0.20735756  0.06125010  0.81970109     0.07490
C605        C  0.18103394  0.07651280  0.80098542     0.01290
H606        H  0.24527114  0.05914458  0.81310506     0.08940
H607        H  0.16338805  0.08170770  0.80534455     0.08020
N608        N  0.22161854  0.12889797  0.71340882    -0.35820
N609        N  0.20337543  0.15529989  0.69393676    -0.28000
C610        C  0.21366822  0.16792051  0.67604489    -0.03240
C611        C  0.23957695  0.14853826  0.68449086     0.05370
C612        C  0.24364110  0.12342589  0.70800524     0.03460
H613        H  0.20281969  0.18916916  0.65785592     0.08570
H614        H  0.26066352  0.10128635  0.71980073     0.07400
C615        C  0.21766246  0.05501515  0.85077319     0.03440
C616        C  0.20433366  0.07827286  0.86422745    -0.12710
C617        C  0.21368715  0.07626723  0.89381712     0.00940
C618        C  0.23550138  0.04735781  0.90944272    -0.11240
C619        C  0.25106164  0.36120635  0.89714403     0.03430
C620        C  0.24196220  0.03091082  0.86762867    -0.10660
H621        H  0.18841277  0.10158750  0.85172399     0.09020
H622        H  0.24257665  0.04348413  0.93211561     0.06550
H623        H  0.25390170  0.34886003  0.85810853     0.06400
N624        N  0.16040870  0.30332455  0.74619109    -0.26980
N625        N  0.18075165  0.28402927  0.76810760    -0.34840
C626        C  0.20341124  0.28132606  0.76349623     0.01360
C627        C  0.19746472  0.30126960  0.73756968     0.07380
C628        C  0.16975341  0.31467772  0.72739102    -0.05720
H629        H  0.22227412  0.26506707  0.77800122     0.08050
H630        H  0.15702411  0.99802470  0.70759329     0.09250
Cu631      Cu  0.17609877  0.26421522  0.80324178     0.44170
Cu632      Cu  0.12046396  0.30946579  0.74232973     0.41990
Cu633      Cu  0.10824186  0.27710195  0.80287346     0.43880
N634        N  0.16753184  0.24642310  0.83637019    -0.34370
N635        N  0.14284248  0.24899673  0.83632358    -0.28620
C636        C  0.14435993  0.22878141  0.85983633    -0.04720
C637        C  0.17149630  0.21396032  0.87547386     0.07490
C638        C  0.18544033  0.22561820  0.85994407     0.01290
H639        H  0.12684155  0.22371521  0.86451741     0.08940
H640        H  0.20663708  0.21688544  0.86454423     0.08020
N641        N  0.07762422  0.30164184  0.76456285    -0.35820
N642        N  0.08190470  0.31091315  0.74236731    -0.28000
C643        C  0.05749063  0.98879226  0.72030422    -0.03240
C644        C  0.03656630  0.98802046  0.72900130     0.05370
C645        C  0.05039128  0.30789355  0.75729885     0.03460
H646        H  0.05570729  0.99573228  0.69957639     0.08570
H647        H  0.04126659  0.30266449  0.77165156     0.07400
C648        C  0.18319024  0.18367862  0.89975633     0.03440
C649        C  0.20479464  0.20043647  0.92511675    -0.12710
C650        C  0.22706005  0.17343918  0.94257146     0.00940
C651        C  0.22764743  0.12956990  0.93457821    -0.11240
C652        C  0.20636338  0.11237353  0.90872035     0.03430
C653        C  0.18251029  0.13845748  0.89338281    -0.10660
H654        H  0.20657826  0.23597698  0.92900980     0.09020
H655        H  0.24701956  0.11202353  0.94640448     0.06550
H656        H  0.16580732  0.12639640  0.87341292     0.06400
C657        C  0.25858773  0.31454350  0.71832410    -0.05470
C658        C  0.24379784  0.31902104  0.68864063     0.00450
C659        C  0.21407632  0.31884052  0.67546598    -0.08120
C660        C  0.20041946  0.31038663  0.69227618    -0.05490
C661        C  0.21501110  0.30608501  0.72214280     0.00440
C662        C  0.24494529  0.30915251  0.73554410    -0.08030
C663        C  0.26317136  0.30660801  0.76755940     0.62350
H664        H  0.28128865  0.31428104  0.72807213     0.13050
H665        H  0.17778155  0.30721087  0.68166155     0.13060
C666        C  0.19613530  0.32851638  0.64402950     0.62590
F667        F  0.29043682  0.32102858  0.77550151    -0.22580
F668        F  0.26440002  0.26316616  0.77622049    -0.19910
F669        F  0.25268177  0.99995469  0.78167309    -0.19590
F670        F  0.19107533  0.28980147  0.62828223    -0.19640
F671        F  0.20909033  0.35954998  0.63447508    -0.19960
F672        F  0.17049635  0.34566776  0.63928155    -0.22640
C673        C  0.30136164  0.15463392  0.66683474    -0.05470
C674        C  0.28743808  0.15252994  0.63683784     0.00450
C675        C  0.25751866  0.15241699  0.62281845    -0.08120
C676        C  0.24309964  0.14992847  0.63939636    -0.05490
C677        C  0.25709979  0.15077414  0.66927379     0.00440
C678        C  0.28677272  0.15533452  0.68331286    -0.08030
C679        C  0.30334959  0.16227466  0.71534556     0.62350
H680        H  0.32407588  0.15521440  0.67762480     0.13050
H681        H  0.22039707  0.14710562  0.62884547     0.13060
C682        C  0.24002857  0.15597156  0.59074937     0.62590
F683        F  0.32976043  0.18015285  0.72271667    -0.22580
F684        F  0.30679267  0.12217930  0.72902910    -0.19910
F685        F  0.28969999  0.19138091  0.72498694    -0.19590
F686        F  0.23607961  0.11444976  0.57829921    -0.19640
F687        F  0.25279874  0.18402403  0.57940555    -0.19960
F688        F  0.21384833  0.17321067  0.58381600    -0.22640
C689        C  0.98785317  0.30674093  0.72079505    -0.05470
C690        C  0.00579808  0.99703556  0.71261830     0.00450
C691        C  0.99396236  0.02958282  0.69100718    -0.08120
C692        C  0.96521882  0.03896923  0.68029136    -0.05490
C693        C  0.94733765  0.01584524  0.68887140     0.00440
C694        C  0.95883904  0.31440724  0.70891024    -0.08030
C695        C  0.94140297  0.28473954  0.71822747     0.62350
H696        H  0.99678591  0.28141478  0.73683860     0.13050
H697        H  0.95649627  0.06519115  0.66493505     0.13060
C698        C  0.01082427  0.05467604  0.67879055     0.62590
F699        F  0.95512063  0.24581378  0.73014065    -0.22580
F700        F  0.91619834  0.27295314  0.69519117    -0.19910
F701        F  0.93663931  0.30641388  0.73871046    -0.19590
F702        F  0.01807088  0.02606005  0.66288513    -0.19640
F703        F  0.03464738  0.07383619  0.70043347    -0.19960
F704        F  0.99558000  0.08807959  0.66058997    -0.22640
C705        C  0.01596176  0.26592757  0.64176923    -0.05470
C706        C  0.99726321  0.24312455  0.64930272     0.00450
C707        C  0.00806262  0.20945882  0.67025906    -0.08120
C708        C  0.03643795  0.19790861  0.68073322    -0.05490
C709        C  0.05508509  0.22013897  0.67278585     0.00440
C710        C  0.04473627  0.25627283  0.65363620    -0.08030
C711        C  0.06312774  0.28526370  0.64519521     0.62350
H712        H  0.00781455  0.29209694  0.62621514     0.13050
H713        H  0.04422050  0.17062288  0.69538105     0.13060
C714        C  0.99047302  0.18541466  0.68204638     0.62590
F715        F  0.05055872  0.99197320  0.63414584    -0.22580
F716        F  0.06750207  0.26398618  0.62434084    -0.19910
F717        F  0.08850501  0.29493302  0.66860973    -0.19590
F718        F  0.96627845  0.16773024  0.66010541    -0.19640
F719        F  0.98385435  0.21448832  0.69820172    -0.19960
F720        F  0.00477401  0.15109914  0.69991941    -0.22640
C721        C  0.49515806  0.26385807  0.62680296    -0.05470
C722        C  0.48978609  0.22161583  0.63446509     0.00450
C723        C  0.51202708  0.19699908  0.65517680    -0.08120
C724        C  0.53926968  0.21545393  0.66747036    -0.05490
C725        C  0.54474964  0.25713197  0.65932575     0.00440
C726        C  0.52252253  0.28223477  0.63905500    -0.08030
C727        C  0.52786025  0.32822782  0.63080683     0.62350
H728        H  0.47774713  0.28220264  0.61105431     0.13050
H729        H  0.55670562  0.19708526  0.68317596     0.13060
C730        C  0.50710300  0.15072124  0.66325061     0.62590
F731        F  0.50331620  0.01432261  0.61131276    -0.22580
F732        F  0.54595863  0.32573734  0.61871763    -0.19910
F733        F  0.53981983  0.02185090  0.65480722    -0.19590
F734        F  0.49708649  0.12376561  0.63930611    -0.19640
F735        F  0.48770094  0.15168787  0.67379023    -0.19960
F736        F  0.53151601  0.13249180  0.68388200    -0.22640
C737        C  0.79872248  0.27235479  0.66569828    -0.05470
C738        C  0.78685433  0.28518495  0.63687992     0.00450
C739        C  0.75717771  0.29095471  0.62202818    -0.08120
C740        C  0.74165108  0.28896386  0.63753713    -0.05490
C741        C  0.75384208  0.27726699  0.66636347     0.00440
C742        C  0.78246421  0.26548298  0.68008726    -0.08030
C743        C  0.79637785  0.24410815  0.70926533     0.62350
H744        H  0.82106280  0.26690807  0.67731786     0.13050
H745        H  0.71963128  0.29735190  0.62708197     0.13060
C746        C  0.74097842  0.29870512  0.59014116     0.62590
F747        F  0.81601088  0.21371074  0.71033821    -0.22580
F748        F  0.77714919  0.22127921  0.71529005    -0.19910
F749        F  0.80990896  0.27627979  0.72991682    -0.19590
F750        F  0.75116558  0.27267994  0.57538121    -0.19640
F751        F  0.74262453  0.00970694  0.58448419    -0.19960
F752        F  0.71282111  0.28755932  0.57994278    -0.22640
C753        C  0.49604298  0.03856003  0.70188681    -0.05470
C754        C  0.51071431  0.03234946  0.73148201     0.00450
C755        C  0.49705404  0.01084362  0.74577728    -0.08120
C756        C  0.46831932  0.00014699  0.73026734    -0.05490
C757        C  0.45353499  0.00761869  0.70091245     0.00440
C758        C  0.46766435  0.02588421  0.68613924    -0.08030
C759        C  0.45283498  0.03289194  0.65407947     0.62350
H760        H  0.50703419  0.05373690  0.69115395     0.13050
H761        H  0.45716482  0.31859523  0.74094540     0.13060
C762        C  0.51273600  0.33038375  0.77676859     0.62590
F763        F  0.46967942  0.05534594  0.64471807    -0.22580
F764        F  0.42880925  0.05726747  0.64662233    -0.19910
F765        F  0.44582015  0.99251407  0.64001129    -0.19590
F766        F  0.51812424  0.03354617  0.79443225    -0.19640
F767        F  0.53776734  0.31068541  0.78180565    -0.19960
F768        F  0.49728612  0.30001085  0.78375192    -0.22640
C769        C  0.73916561  0.08568815  0.73921255    -0.05470
C770        C  0.70992267  0.08604665  0.72202427     0.00450
C771        C  0.69930389  0.08440680  0.69185381    -0.08120
C772        C  0.71843570  0.08159449  0.68041488    -0.05490
C773        C  0.74762086  0.08235486  0.69757511     0.00440
C774        C  0.75830750  0.08486349  0.72768797    -0.08030
C775        C  0.78952850  0.08825161  0.74797407     0.62350
H776        H  0.74709837  0.08628398  0.76213371     0.13050
H777        H  0.71057649  0.07915757  0.65753247     0.13060
C778        C  0.66822411  0.08698524  0.67121449     0.62590
F779        F  0.79443073  0.10103441  0.77513791    -0.22580
F780        F  0.80240454  0.11949258  0.73847604    -0.19910
F781        F  0.80172065  0.04748061  0.75011282    -0.19590
F782        F  0.65567956  0.11977651  0.67963136    -0.19640
F783        F  0.65532017  0.04650327  0.66987066    -0.19960
F784        F  0.66387995  0.09709995  0.64388827    -0.22640
N785        N  0.58407690  0.39704562  0.25485870    -0.26980
N786        N  0.57985432  0.41619395  0.27515557    -0.34840
C787        C  0.55336007  0.40745629  0.27039324     0.01360
C788        C  0.54042659  0.38087478  0.24624958     0.07380
C789        C  0.56042416  0.37562894  0.23674018    -0.05720
H790        H  0.54398326  0.42139002  0.28287236     0.08050
H791        H  0.55773414  0.35834625  0.21763005     0.09250
Cu792      Cu  0.60977316  0.45435795  0.30822164     0.44170
Cu793      Cu  0.62086415  0.40285347  0.25119567     0.41990
Cu794      Cu  0.67566443  0.46864780  0.30500959     0.43880
N795        N  0.64434976  0.48773334  0.33956080    -0.34370
N796        N  0.66854267  0.49150054  0.33853697    -0.28620
C797        C  0.68665069  0.51504144  0.36131505    -0.04720
C798        C  0.67334520  0.52682468  0.37746745     0.07490
C799        C  0.64640443  0.50935270  0.36294672     0.01290
H800        H  0.70763353  0.52479371  0.36518177     0.08940
H801        H  0.62935833  0.51321930  0.36840930     0.08020
N802        N  0.67800179  0.44353226  0.26924253    -0.35820
N803        N  0.65803827  0.41831357  0.24992321    -0.28000
C804        C  0.66592010  0.40551836  0.23020947    -0.03240
C805        C  0.69198770  0.42444191  0.23685300     0.05370
C806        C  0.69898554  0.44803457  0.26200443     0.03460
H807        H  0.65370811  0.38286940  0.21303933     0.08570
H808        H  0.71807509  0.46702610  0.27426582     0.07400
C809        C  0.68507008  0.55860098  0.40154553     0.03440
C810        C  0.68575943  0.60327416  0.39485569    -0.12710
C811        C  0.70938666  0.29690836  0.41157050     0.00940
C812        C  0.72840619  0.61483542  0.43878496    -0.11240
C813        C  0.72634351  0.57147644  0.44712839     0.03430
C814        C  0.70459861  0.54340630  0.42825863    -0.10660
H815        H  0.67021925  0.61415070  0.37418048     0.09020
H816        H  0.74763048  0.29965385  0.45175055     0.06550
H817        H  0.70563834  0.50808637  0.43244730     0.06400
N818        N  0.61883520  0.61443785  0.18296075    -0.26980
N819        N  0.61631985  0.62529925  0.20596829    -0.34840
C820        C  0.58939504  0.62039539  0.20063771     0.01360
C821        C  0.57405076  0.60666968  0.17268433     0.07380
C822        C  0.59335572  0.60262982  0.16212068    -0.05720
H823        H  0.58179520  0.62469481  0.21629454     0.08050
H824        H  0.58939123  0.59008777  0.14134566     0.09250
Cu825      Cu  0.64986596  0.64411828  0.24373332     0.44170
Cu826      Cu  0.65767334  0.61312072  0.18305179     0.41990
Cu827      Cu  0.71910781  0.65289204  0.24899996     0.43880
N828        N  0.68466072  0.66519009  0.27978390    -0.34370
N829        N  0.71027391  0.66921006  0.28224135    -0.28620
C830        C  0.72791649  0.68197052  0.30915327    -0.04720
C831        C  0.71242881  0.68578697  0.32414992     0.07490
C832        C  0.68513110  0.67524468  0.30471927     0.01290
H833        H  0.75045327  0.68532806  0.31758235     0.08940
H834        H  0.66700551  0.67313604  0.30867891     0.08020
N835        N  0.72065842  0.63114525  0.21240631    -0.35820
N836        N  0.69887408  0.61593092  0.18916847    -0.28000
C837        C  0.70757015  0.60477671  0.16980729    -0.03240
C838        C  0.73617835  0.61322083  0.18132275     0.05370
C839        C  0.74363763  0.63045320  0.20824550     0.03460
H840        H  0.69387980  0.59231774  0.14861003     0.08570
H841        H  0.76403117  0.64305362  0.22340643     0.07400
C842        C  0.72274746  0.35685497  0.35518929     0.03440
C843        C  0.70964538  0.33124780  0.36802838    -0.12710
C844        C  0.71866951  0.33258905  0.39765353     0.00940
C845        C  0.74064750  0.36232228  0.41394627    -0.11240
C846        C  0.75527521  0.38556924  0.40166642     0.03430
C847        C  0.74620606  0.38326918  0.37222430    -0.10660
H848        H  0.69381560  0.64090227  0.35465476     0.09020
H849        H  0.74779361  0.36587476  0.43665351     0.06550
H850        H  0.75740232  0.40152721  0.36277567     0.06400
N851        N  0.84409169  0.61756265  0.11642797    -0.26980
N852        N  0.82638955  0.64356381  0.09652751    -0.34840
C853        C  0.80359267  0.64890322  0.10056496     0.01360
C854        C  0.80634892  0.62349130  0.12368010     0.07380
C855        C  0.83268191  0.60443938  0.13324505    -0.05720
H856        H  0.78670429  0.67022398  0.08747843     0.08050
H857        H  0.84296148  0.58246490  0.15111867     0.09250
Cu858      Cu  0.83349337  0.66626834  0.06347803     0.44170
Cu859      Cu  0.88327073  0.60467883  0.11968947     0.41990
Cu860      Cu  0.89701558  0.63657705  0.05930435     0.43880
N861        N  0.84125154  0.34697817  0.02939501    -0.34370
N862        N  0.86424131  0.33706177  0.02727523    -0.28620
C863        C  0.86243196  0.35422040  0.00281501    -0.04720
C864        C  0.83689756  0.37523785  0.98908184     0.07490
C865        C  0.82416549  0.36991153  0.00649534     0.01290
H866        H  0.87874476  0.35275638  0.99611747     0.08940
H867        H  0.80427986  0.38337939  0.00325578     0.08020
N868        N  0.92638765  0.60949748  0.09738035    -0.35820
N869        N  0.92165684  0.60028440  0.11932498    -0.28000
C870        C  0.94568830  0.58756387  0.14132975    -0.03240
C871        C  0.96678111  0.58733432  0.13287542     0.05450
C872        C  0.95349938  0.60176606  0.10478221     0.03460
H873        H  0.94713405  0.58043880  0.16189613     0.08570
H874        H  0.96293653  0.60674269  0.09067878     0.07400
C875        C  0.82549584  0.40348516  0.46377585     0.03440
C876        C  0.80453570  0.38474689  0.43864171    -0.12710
C877        C  0.78111933  0.40958209  0.42081919     0.00940
C878        C  0.77880292  0.45315762  0.42839229    -0.11240
C879        C  0.79947800  0.47177758  0.45403192     0.03430
C880        C  0.82462139  0.44875085  0.46910023    -0.10660
H881        H  0.80399943  0.34910778  0.43547411     0.09020
H882        H  0.75868786  0.46896319  0.41686770     0.06550
H883        H  0.84057432  0.46241882  0.48905576     0.06400
N884        N  0.87420328  0.38130191  0.16822829    -0.26980
N885        N  0.87716067  0.39457826  0.14595475    -0.34840
C886        C  0.90264817  0.38320053  0.14931732     0.01360
C887        C  0.91706824  0.36230735  0.17546247     0.07380
C888        C  0.89813403  0.36229700  0.18689002    -0.05720
H889        H  0.91038276  0.39104530  0.13411171     0.08050
H890        H  0.90150154  0.35150821  0.20762849     0.09250
Cu891      Cu  0.84773237  0.43331059  0.11457432     0.44170
Cu892      Cu  0.83748724  0.39206811  0.17133075     0.41990
Cu893      Cu  0.78289816  0.46191649  0.11529880     0.43880
N894        N  0.81742676  0.47241304  0.08429972    -0.34370
N895        N  0.79280425  0.48176453  0.08293152    -0.28620
C896        C  0.77703932  0.50190886  0.05778327    -0.04720
C897        C  0.79270997  0.50514814  0.04276469     0.07490
C898        C  0.81833825  0.48685240  0.06078847     0.01290
H899        H  0.75530488  0.51081557  0.05025384     0.08940
H900        H  0.83609417  0.48179938  0.05659999     0.08020
N901        N  0.78056557  0.43529509  0.15081086    -0.35820
N902        N  0.79934880  0.40894305  0.16981784    -0.28000
C903        C  0.79057849  0.39690415  0.18904310    -0.03240
C904        C  0.76549355  0.41775504  0.18260281     0.05370
C905        C  0.75971835  0.44132504  0.15797730     0.03460
H906        H  0.80172510  0.37406990  0.20607303     0.08570
H907        H  0.74167664  0.46183887  0.14620426     0.07400
C908        C  0.78356730  0.51632645  0.01227779     0.03440
C909        C  0.75995279  0.54234138  0.49594580    -0.12710
C910        C  0.75260669  0.55034316  0.46704071     0.00940
C911        C  0.76894101  0.53337411  0.45482668    -0.11240
C912        C  0.79041593  0.50382177  0.46972055     0.03430
C913        C  0.79793477  0.49663804  0.49860431    -0.10660
H914        H  0.74726371  0.55548016  0.50531431     0.09020
H915        H  0.76284987  0.53969798  0.43253028     0.06550
H916        H  0.81335812  0.47194088  0.50993006     0.06400
N917        N  0.34183206  0.49212059  0.11251662    -0.26980
N918        N  0.32234722  0.46883785  0.09139688    -0.34840
C919        C  0.30008092  0.46281215  0.09644533     0.01360
C920        C  0.30523999  0.48456633  0.12167161     0.07380
C921        C  0.33220190  0.50237516  0.13131718    -0.05720
H922        H  0.28191347  0.44308643  0.08286492     0.08050
H923        H  0.34403101  0.52151953  0.15063215     0.09250
Cu924      Cu  0.32687560  0.44770519  0.05632685     0.44170
Cu925      Cu  0.38061597  0.50735053  0.11428305     0.41990
Cu926      Cu  0.39232073  0.46804810  0.05390701     0.43880
N927        N  0.33474095  0.42704015  0.02317551    -0.34370
N928        N  0.35888285  0.43256758  0.02227146    -0.28620
C929        C  0.35755508  0.41047550  0.99930919    -0.04720
C930        C  0.33110325  0.39097841  0.48505748     0.07490
C931        C  0.31737000  0.40214370  0.00082711     0.01290
H932        H  0.37478152  0.40753205  0.49403636     0.08940
H933        H  0.29670923  0.39081444  0.49715910     0.08020
N934        N  0.42163846  0.50367327  0.08912980    -0.35820
N935        N  0.41758426  0.51700656  0.11094233    -0.28000
C936        C  0.44114176  0.53734959  0.13030797    -0.03240
C937        C  0.46079668  0.53706100  0.12015877     0.05370
C938        C  0.44779920  0.51563705  0.09402959     0.03460
H939        H  0.44394777  0.55071523  0.15050804     0.08570
H940        H  0.45685450  0.50857469  0.07984706     0.07400
C941        C  0.32006472  0.35823044  0.46156043     0.03440
C942        C  0.32095262  0.64686192  0.46900148    -0.12710
C943        C  0.29832948  0.61778437  0.45274243     0.00940
C944        C  0.27815018  0.63205928  0.42566467    -0.11240
C945        C  0.27821787  0.34238165  0.41699560     0.03430
C946        C  0.29937458  0.37198638  0.43501722    -0.10660
H947        H  0.33693265  0.63727488  0.48978888     0.09020
H948        H  0.25947470  0.61242857  0.41309815     0.06550
H949        H  0.29706129  0.40718087  0.43040204     0.06400
N950        N  0.37760891  0.32926827  0.17327412    -0.26980
N951        N  0.38226913  0.63405010  0.15691806    -0.34840
C952        C  0.40979370  0.29968417  0.16462463     0.01360
C953        C  0.42328664  0.32975336  0.18652379     0.07380
C954        C  0.40237018  0.34749602  0.19190138    -0.05720
H955        H  0.41904814  0.61190248  0.15475870     0.08050
H956        H  0.40492872  0.37228508  0.20782688     0.09250
Cu957      Cu  0.35165002  0.60140178  0.12247198     0.44170
Cu958      Cu  0.33757334  0.67333106  0.16906275     0.41990
Cu959      Cu  0.28145089  0.61216914  0.10846233     0.43880
N960        N  0.31897732  0.58256095  0.08428424    -0.34370
N961        N  0.29244368  0.58653623  0.07863289    -0.28620
C962        C  0.27606948  0.57531084  0.05118111    -0.04720
C963        C  0.29335609  0.56383456  0.03920090     0.07490
C964        C  0.32040851  0.56909396  0.06073694     0.01290
H965        H  0.25346176  0.57821147  0.04030483     0.08940
H966        H  0.33970822  0.56560784  0.05906226     0.08020
N967        N  0.27729648  0.63987230  0.14222353    -0.35820
N968        N  0.29666749  0.66389434  0.16312830    -0.28000
C969        C  0.28698545  0.67427398  0.18185726    -0.03240
C970        C  0.26035919  0.65560240  0.17245991     0.05370
C971        C  0.25519219  0.63362383  0.14742512     0.03460
H972        H  0.29914587  0.35856460  0.20174632     0.08570
H973        H  0.23766636  0.61192474  0.13481973     0.07400
C974        C  0.28517713  0.55762986  0.50879118     0.03440
C975        C  0.29939533  0.58206536  0.49660830    -0.12710
C976        C  0.29068558  0.58059766  0.46699491     0.00940
C977        C  0.26927173  0.55005137  0.45064106    -0.11240
C978        C  0.25360222  0.52833309  0.46227513     0.03430
C979        C  0.26158661  0.53184520  0.49138787    -0.10660
H980        H  0.31539196  0.60534463  0.51028554     0.09020
H981        H  0.26278677  0.54581310  0.42808814     0.06550
H982        H  0.24930450  0.51529629  0.50029888     0.06400
N983        N  0.12729886  0.51612430  0.19315107    -0.26980
N984        N  0.12343690  0.50168283  0.21469610    -0.34840
C985        C  0.09824348  0.51466837  0.21134021     0.01360
C986        C  0.08487313  0.53785792  0.18593982     0.07380
C987        C  0.10416814  0.53756448  0.17494437    -0.05720
H988        H  0.09004484  0.50659242  0.22613651     0.08050
H989        H  0.10160423  0.55007393  0.15481931     0.09250
Cu990      Cu  0.15121697  0.46054722  0.24573331     0.44170
Cu991      Cu  0.16428769  0.50474929  0.19053503     0.41990
Cu992      Cu  0.21703065  0.43478065  0.24718226     0.43880
N993        N  0.18151740  0.42263199  0.27691905    -0.34370
N994        N  0.20656440  0.41498852  0.27886914    -0.28620
C995        C  0.22299866  0.39794495  0.30478297    -0.04720
C996        C  0.20735760  0.39458350  0.31970111     0.07490
C997        C  0.18103400  0.40984623  0.30098544     0.01290
H998        H  0.24527119  0.39247792  0.31310507     0.08940
H999        H  0.16338810  0.41504116  0.30534457     0.08020
N1000       N  0.22161856  0.46223128  0.21340881    -0.35820
N1001       N  0.20337545  0.48863319  0.19393675    -0.28000
C1002       C  0.21366824  0.50125380  0.17604487    -0.03240
C1003       C  0.23957697  0.48187155  0.18449083     0.05370
C1004       C  0.24364112  0.45675919  0.20800523     0.03460
H1005       H  0.20281971  0.52250245  0.15785589     0.08570
H1006       H  0.26066354  0.43461966  0.21980072     0.07400
C1007       C  0.21766250  0.38834855  0.35077321     0.03440
C1008       C  0.20433369  0.41160625  0.36422746    -0.12710
C1009       C  0.21368717  0.40960061  0.39381713     0.00940
C1010       C  0.23550140  0.38069119  0.40944274    -0.11240
C1011       C  0.25106166  0.69453972  0.39714404     0.03430
C1012       C  0.24196224  0.36424421  0.36762870    -0.10660
H1013       H  0.18841281  0.43492090  0.35172400     0.09020
H1014       H  0.24257666  0.37681750  0.43211562     0.06550
H1015       H  0.25390171  0.68219339  0.35810855     0.06400
N1016       N  0.16040871  0.63665785  0.24619106    -0.26980
N1017       N  0.18075166  0.61736259  0.26810758    -0.34840
C1018       C  0.20341126  0.61465941  0.26349622     0.01360
C1019       C  0.19746474  0.63460294  0.23756967     0.07380
C1020       C  0.16975342  0.64801103  0.22739100    -0.05720
H1021       H  0.22227414  0.59840045  0.27800122     0.08050
H1022       H  0.15702414  0.33135807  0.20759333     0.09250
Cu1023     Cu  0.17609878  0.59754854  0.30324176     0.44170
Cu1024     Cu  0.12046396  0.64279905  0.24232969     0.41990
Cu1025     Cu  0.10824185  0.61043526  0.30287342     0.43880
N1026       N  0.16753183  0.57975642  0.33637017    -0.34370
N1027       N  0.14284248  0.58233005  0.33632354    -0.28620
C1028       C  0.14435992  0.56211474  0.35983630    -0.04720
C1029       C  0.17149629  0.54729366  0.37547384     0.07490
C1030       C  0.18544032  0.55895154  0.35994405     0.01290
H1031       H  0.12684154  0.55704854  0.36451738     0.08940
H1032       H  0.20663708  0.55021877  0.36454421     0.08020
N1033       N  0.07762421  0.63497512  0.26456280    -0.35820
N1034       N  0.08190470  0.64424641  0.24236726    -0.28000
C1035       C  0.05749066  0.32212562  0.22030428    -0.03240
C1036       C  0.03656634  0.32135383  0.22900137     0.05370
C1037       C  0.05039127  0.64122684  0.25729880     0.03460
H1038       H  0.05570731  0.32906560  0.19957644     0.08570
H1039       H  0.04126658  0.63599781  0.27165151     0.07400
C1040       C  0.18319023  0.51701197  0.39975632     0.03440
C1041       C  0.20479462  0.53376984  0.42511674    -0.12710
C1042       C  0.22706003  0.50677256  0.44257145     0.00940
C1043       C  0.22764743  0.46290328  0.43457821    -0.11240
C1044       C  0.20636338  0.44570689  0.40872036     0.03430
C1045       C  0.18251029  0.47179083  0.39338281    -0.10660
H1046       H  0.20657825  0.56931035  0.42900977     0.09020
H1047       H  0.24701956  0.44535690  0.44640449     0.06550
H1048       H  0.16580732  0.45972974  0.37341291     0.06400
C1049       C  0.25858776  0.64787694  0.21832412    -0.05470
C1050       C  0.24379787  0.65235451  0.18864065     0.00450
C1051       C  0.21407636  0.65217397  0.17546599    -0.08120
C1052       C  0.20041949  0.64372003  0.19227617    -0.05490
C1053       C  0.21501112  0.63941839  0.22214280     0.00440
C1054       C  0.24494531  0.64248591  0.23554410    -0.08030
C1055       C  0.26317138  0.63994137  0.26755940     0.62350
H1056       H  0.28128868  0.64761449  0.22807215     0.13050
H1057       H  0.17778159  0.64054426  0.18166154     0.13060
C1058       C  0.19613534  0.66184985  0.14402951     0.62590
F1059       F  0.29043685  0.65436193  0.27550152    -0.22580
F1060       F  0.26440003  0.59649951  0.27622047    -0.19910
F1061       F  0.25268175  0.33328791  0.28167309    -0.19590
F1062       F  0.19107534  0.62313495  0.12828223    -0.19640
F1063       F  0.20909038  0.69288343  0.13447509    -0.19960
F1064       F  0.17049640  0.67900128  0.13928157    -0.22640
C1065       C  0.30136166  0.48796721  0.16683472    -0.05470
C1066       C  0.28743811  0.48586324  0.13683781     0.00450
C1067       C  0.25751868  0.48575028  0.12281842    -0.08120
C1068       C  0.24309966  0.48326176  0.13939634    -0.05490
C1069       C  0.25709981  0.48410742  0.16927376     0.00440
C1070       C  0.28677274  0.48866781  0.18331284    -0.08030
C1071       C  0.30334960  0.49560797  0.21534554     0.62350
H1072       H  0.32407590  0.48854770  0.17762478     0.13050
H1073       H  0.22039709  0.48043890  0.12884544     0.13060
C1074       C  0.24002859  0.48930485  0.09074934     0.62590
F1075       F  0.32976044  0.51348616  0.22271664    -0.22580
F1076       F  0.30679269  0.45551261  0.22902907    -0.19910
F1077       F  0.28970001  0.52471422  0.22498691    -0.19590
F1078       F  0.23607963  0.44778305  0.07829919    -0.19640
F1079       F  0.25279876  0.51735732  0.07940552    -0.19960
F1080       F  0.21384835  0.50654396  0.08381597    -0.22640
C1081       C  0.98785316  0.64007428  0.22079500    -0.05470
C1082       C  0.00579812  0.33036887  0.21261836     0.00450
C1083       C  0.99396237  0.36291610  0.19100723    -0.08120
C1084       C  0.96521883  0.37230246  0.18029140    -0.05490
C1085       C  0.94733767  0.34917844  0.18887146     0.00440
C1086       C  0.95883903  0.64774062  0.20891021    -0.08030
C1087       C  0.94140295  0.61807294  0.21822743     0.62350
H1088       H  0.99678589  0.61474813  0.23683856     0.13050
H1089       H  0.95649625  0.39852435  0.16493508     0.13060
C1090       C  0.01082427  0.38800935  0.17879060     0.62590
F1091       F  0.95512060  0.57914716  0.23014059    -0.22580
F1092       F  0.91619832  0.60628656  0.19519113    -0.19910
F1093       F  0.93663932  0.63974727  0.23871043    -0.19590
F1094       F  0.01807090  0.35939339  0.16288519    -0.19640
F1095       F  0.03464737  0.40716954  0.20043352    -0.19960
F1096       F  0.99557997  0.42141288  0.16059002    -0.22640
C1097       C  0.01596174  0.59926075  0.14176918    -0.05470
C1098       C  0.99726322  0.57645773  0.14930271     0.00450
C1099       C  0.00806267  0.54279206  0.17025909    -0.08120
C1100       C  0.03643801  0.53124191  0.18073325    -0.05490
C1101       C  0.05508512  0.55347227  0.17278585     0.00440
C1102       C  0.04473626  0.58960607  0.15363616    -0.08030
C1103       C  0.06312770  0.61859693  0.14519512     0.62350
H1104       H  0.00781451  0.62543007  0.12621506     0.13050
H1105       H  0.04422059  0.50395622  0.19538112     0.13060
C1106       C  0.99047310  0.51874793  0.18204645     0.62590
F1107       F  0.05055876  0.32530659  0.13414590    -0.22580
F1108       F  0.06750204  0.59731937  0.12434077    -0.19910
F1109       F  0.08850497  0.62826633  0.16860963    -0.19590
F1110       F  0.96627853  0.50106347  0.16010552    -0.19640
F1111       F  0.98385442  0.54782162  0.19820178    -0.19960
F1112       F  0.00477411  0.48443245  0.19991950    -0.22640
C1113       C  0.49515809  0.59719123  0.12680292    -0.05470
C1114       C  0.48978615  0.55494903  0.13446513     0.00450
C1115       C  0.51202715  0.53033240  0.15517692    -0.08120
C1116       C  0.53926973  0.54878732  0.16747047    -0.05490
C1117       C  0.54474967  0.59046531  0.15932578     0.00440
C1118       C  0.52252254  0.61556800  0.13905495    -0.08030
C1119       C  0.52786023  0.66156100  0.13080669     0.62350
H1120       H  0.47774714  0.61553571  0.11105421     0.13050
H1121       H  0.55670568  0.53041874  0.18317613     0.13060
C1122       C  0.50710311  0.48405459  0.16325081     0.62590
F1123       F  0.50331614  0.34765602  0.11131272    -0.22580
F1124       F  0.54595863  0.65907047  0.11871752    -0.19910
F1125       F  0.53981979  0.35518429  0.15480717    -0.19590
F1126       F  0.49708670  0.45709884  0.13930637    -0.19640
F1127       F  0.48770100  0.48502124  0.17379037    -0.19960
F1128       F  0.53151613  0.46582528  0.18388228    -0.22640
C1129       C  0.79872261  0.60568821  0.16569849    -0.05470
C1130       C  0.78685446  0.61851819  0.13688011     0.00450
C1131       C  0.75717783  0.62428767  0.12202828    -0.08120
C1132       C  0.74165116  0.62229685  0.13753718    -0.05490
C1133       C  0.75384215  0.61060021  0.16636357     0.00440
C1134       C  0.78246431  0.59881638  0.18008743    -0.08030
C1135       C  0.79637797  0.57744169  0.20926555     0.62350
H1136       H  0.82106294  0.60024164  0.17731810     0.13050
H1137       H  0.71963133  0.63068472  0.12708194     0.13060
C1138       C  0.74097859  0.63203771  0.09014121     0.62590
F1139       F  0.81601093  0.54704413  0.21033843    -0.22580
F1140       F  0.77714932  0.55461293  0.21529038    -0.19910
F1141       F  0.80990916  0.60961340  0.22991696    -0.19590
F1142       F  0.75116603  0.60601270  0.07538145    -0.19640
F1143       F  0.74262472  0.34304116  0.08448431    -0.19960
F1144       F  0.71282135  0.62089135  0.07994279    -0.22640
C1145       C  0.49604293  0.37189347  0.20188680    -0.05470
C1146       C  0.51071427  0.36568288  0.23148199     0.00450
C1147       C  0.49705402  0.34417701  0.24577727    -0.08120
C1148       C  0.46831930  0.33348038  0.23026734    -0.05490
C1149       C  0.45353496  0.34095209  0.20091244     0.00440
C1150       C  0.46766430  0.35921764  0.18613923    -0.08030
C1151       C  0.45283492  0.36622541  0.15407946     0.62350
H1152       H  0.50703414  0.38707035  0.19115393     0.13050
H1153       H  0.45716477  0.65192878  0.24094538     0.13060
C1154       C  0.51273592  0.66371725  0.27676864     0.62590
F1155       F  0.46967935  0.38867944  0.14471806    -0.22580
F1156       F  0.42880919  0.39060092  0.14662235    -0.19910
F1157       F  0.44582009  0.32584755  0.14001127    -0.19590
F1158       F  0.51812427  0.36687952  0.29443224    -0.19640
F1159       F  0.53776733  0.64401902  0.28180584    -0.19960
F1160       F  0.49728604  0.63334431  0.28375193    -0.22640
C1161       C  0.73916560  0.41902135  0.23921255    -0.05470
C1162       C  0.70992266  0.41937985  0.22202427     0.00450
C1163       C  0.69930388  0.41773998  0.19185381    -0.08120
C1164       C  0.71843569  0.41492763  0.18041489    -0.05490
C1165       C  0.74762085  0.41568799  0.19757511     0.00440
C1166       C  0.75830749  0.41819666  0.22768797    -0.08030
C1167       C  0.78952848  0.42158479  0.24797407     0.62350
H1168       H  0.74709836  0.41961720  0.26213371     0.13050
H1169       H  0.71057648  0.41249067  0.15753248     0.13060
C1170       C  0.66822410  0.42031845  0.17121449     0.62590
F1171       F  0.79443072  0.43436765  0.27513790    -0.22580
F1172       F  0.80240453  0.45282574  0.23847603    -0.19910
F1173       F  0.80172064  0.38081379  0.25011285    -0.19590
F1174       F  0.65567956  0.45310973  0.17963136    -0.19640
F1175       F  0.65532015  0.37983649  0.16987065    -0.19960
F1176       F  0.66387995  0.43043315  0.14388827    -0.22640
N1177       N  0.58407685  0.39704564  0.75485863    -0.26980
N1178       N  0.57985427  0.41619399  0.77515550    -0.34840
C1179       C  0.55336002  0.40745634  0.77039316     0.01360
C1180       C  0.54042654  0.38087481  0.74624951     0.07380
C1181       C  0.56042410  0.37562895  0.73674011    -0.05720
H1182       H  0.54398321  0.42139007  0.78287229     0.08050
H1183       H  0.55773408  0.35834625  0.71762999     0.09250
Cu1184     Cu  0.60977312  0.45435798  0.80822157     0.44170
Cu1185     Cu  0.62086411  0.40285344  0.75119561     0.41990
Cu1186     Cu  0.67566441  0.46864774  0.80500955     0.43880
N1187       N  0.64434972  0.48773333  0.83956075    -0.34370
N1188       N  0.66854264  0.49150050  0.83853693    -0.28620
C1189       C  0.68665067  0.51504137  0.86131502    -0.04720
C1190       C  0.67334518  0.52682463  0.87746741     0.07490
C1191       C  0.64640440  0.50935269  0.86294667     0.01290
H1192       H  0.70763352  0.52479360  0.86518175     0.08940
H1193       H  0.62935830  0.51321931  0.86840925     0.08020
N1194       N  0.67800176  0.44353219  0.76924250    -0.35820
N1195       N  0.65803824  0.41831351  0.74992317    -0.28000
C1196       C  0.66592007  0.40551830  0.73020943    -0.03240
C1197       C  0.69198767  0.42444184  0.73685296     0.05370
C1198       C  0.69898552  0.44803449  0.76200440     0.03460
H1199       H  0.65370808  0.38286936  0.71303929     0.08570
H1200       H  0.71807507  0.46702603  0.77426579     0.07400
C1201       C  0.68507007  0.55860091  0.90154551     0.03440
C1202       C  0.68575945  0.60327409  0.89485569    -0.12710
C1203       C  0.70938667  0.29690835  0.91157050     0.00940
C1204       C  0.72840618  0.61483529  0.93878499    -0.11240
C1205       C  0.72634349  0.57147630  0.94712839     0.03430
C1206       C  0.70459859  0.54340618  0.92825860    -0.10660
H1207       H  0.67021929  0.61415066  0.87418047     0.09020
H1208       H  0.74763048  0.29965385  0.95175055     0.06550
H1209       H  0.70563830  0.50808625  0.93244725     0.06400
N1210       N  0.61883525  0.61443801  0.68296084    -0.26980
N1211       N  0.61631991  0.62529939  0.70596839    -0.34840
C1212       C  0.58939510  0.62039551  0.70063782     0.01360
C1213       C  0.57405081  0.60666980  0.67268444     0.07380
C1214       C  0.59335576  0.60262997  0.66212077    -0.05720
H1215       H  0.58179528  0.62469489  0.71629467     0.08050
H1216       H  0.58939126  0.59008791  0.64134575     0.09250
Cu1217     Cu  0.64986604  0.64411840  0.74373341     0.44170
Cu1218     Cu  0.65767338  0.61312087  0.68305186     0.41990
Cu1219     Cu  0.71910791  0.65289196  0.74900006     0.43880
N1220       N  0.68466082  0.66519017  0.77978399    -0.34370
N1221       N  0.71027401  0.66921006  0.78224145    -0.28620
C1222       C  0.72791660  0.68197048  0.80915338    -0.04720
C1223       C  0.71242892  0.68578700  0.82415001     0.07490
C1224       C  0.68513120  0.67524478  0.80471935     0.01290
H1225       H  0.75045339  0.68532794  0.81758246     0.08940
H1226       H  0.66700561  0.67313619  0.80867900     0.08020
N1227       N  0.72065848  0.63114523  0.71240638    -0.35820
N1228       N  0.69887411  0.61593100  0.68916852    -0.28000
C1229       C  0.70757016  0.60477689  0.66980731    -0.03240
C1230       C  0.73617836  0.61322095  0.68132276     0.05370
C1231       C  0.74363768  0.63045318  0.70824554     0.03460
H1232       H  0.69387978  0.59231803  0.64861002     0.08570
H1233       H  0.76403122  0.64305356  0.72340648     0.07400
C1234       C  0.72274746  0.35685492  0.85518928     0.03440
C1235       C  0.70964538  0.33124777  0.86802837    -0.12710
C1236       C  0.71866951  0.33258903  0.89765352     0.00940
C1237       C  0.74064752  0.36232225  0.91394626    -0.11240
C1238       C  0.75527522  0.38556919  0.90166640     0.03430
C1239       C  0.74620607  0.38326911  0.87222429    -0.10660
H1240       H  0.69381569  0.64090223  0.85465481     0.09020
H1241       H  0.74779362  0.36587475  0.93665349     0.06550
H1242       H  0.75740234  0.40152713  0.86277565     0.06400
N1243       N  0.84409159  0.61756262  0.61642780    -0.26980
N1244       N  0.82638939  0.64356355  0.59652722    -0.34840
C1245       C  0.80359251  0.64890299  0.60056465     0.01360
C1246       C  0.80634879  0.62349133  0.62367991     0.07380
C1247       C  0.83268183  0.60443952  0.63324493    -0.05720
H1248       H  0.78670410  0.67022362  0.58747801     0.08050
H1249       H  0.84296147  0.58246523  0.65111865     0.09250
Cu1250     Cu  0.83349316  0.66626783  0.56347766     0.44170
Cu1251     Cu  0.88327069  0.60467895  0.61968939     0.41990
Cu1252     Cu  0.89701564  0.63657735  0.55930434     0.43880
N1253       N  0.84125154  0.34697821  0.52939501    -0.34370
N1254       N  0.86424132  0.33706182  0.52727523    -0.28620
C1255       C  0.86243196  0.35422047  0.50281501    -0.04720
C1256       C  0.83689756  0.37523790  0.48908185     0.07490
C1257       C  0.82416549  0.36991157  0.50649535     0.01290
H1258       H  0.87874476  0.35275646  0.49611747     0.08940
H1259       H  0.80427986  0.38337942  0.50325578     0.08020
N1260       N  0.92638768  0.60949779  0.59738036    -0.35820
N1261       N  0.92165684  0.60028463  0.61932496    -0.28000
C1262       C  0.94568829  0.58756405  0.64132973    -0.03240
C1263       C  0.96678111  0.58733455  0.63287543     0.05450
C1264       C  0.95349941  0.60176637  0.60478224     0.03460
H1265       H  0.94713400  0.58043890  0.66189609     0.08570
H1266       H  0.96293658  0.60674302  0.59067882     0.07400
C1267       C  0.82549585  0.40348510  0.96377584     0.03440
C1268       C  0.80453571  0.38474682  0.93864170    -0.12710
C1269       C  0.78111935  0.40958203  0.92081917     0.00940
C1270       C  0.77880294  0.45315756  0.92839227    -0.11240
C1271       C  0.79947800  0.47177751  0.95403191     0.03430
C1272       C  0.82462140  0.44875079  0.96910022    -0.10660
H1273       H  0.80399944  0.34910772  0.93547410     0.09020
H1274       H  0.75868788  0.46896313  0.91686767     0.06550
H1275       H  0.84057433  0.46241876  0.98905575     0.06400
N1276       N  0.87420325  0.38130197  0.66822827    -0.26980
N1277       N  0.87716067  0.39457834  0.64595473    -0.34840
C1278       C  0.90264816  0.38320061  0.64931731     0.01360
C1279       C  0.91706822  0.36230739  0.67546244     0.07380
C1280       C  0.89813400  0.36229703  0.68688998    -0.05720
H1281       H  0.91038276  0.39104540  0.63411171     0.08050
H1282       H  0.90150149  0.35150820  0.70762845     0.09250
Cu1283     Cu  0.84773238  0.43331073  0.61457432     0.44170
Cu1284     Cu  0.83748722  0.39206816  0.67133071     0.41990
Cu1285     Cu  0.78289817  0.46191661  0.61529880     0.43880
N1286       N  0.81742678  0.47241321  0.58429973    -0.34370
N1287       N  0.79280427  0.48176469  0.58293153    -0.28620
C1288       C  0.77703934  0.50190903  0.55778328    -0.04720
C1289       C  0.79270999  0.50514832  0.54276471     0.07490
C1290       C  0.81833827  0.48685258  0.56078849     0.01290
H1291       H  0.75530489  0.51081573  0.55025385     0.08940
H1292       H  0.83609419  0.48179956  0.55660001     0.08020
N1293       N  0.78056556  0.43529517  0.65081084    -0.35820
N1294       N  0.79934878  0.40894310  0.66981781    -0.28000
C1295       C  0.79057847  0.39690418  0.68904306    -0.03240
C1296       C  0.76549353  0.41775508  0.68260278     0.05370
C1297       C  0.75971833  0.44132511  0.65797728     0.03460
H1298       H  0.80172507  0.37406990  0.70607298     0.08570
H1299       H  0.74167663  0.46183895  0.64620425     0.07400
C1300       C  0.78356732  0.51632661  0.51227781     0.03440
C1301       C  0.75995276  0.54234121  0.99594579    -0.12710
C1302       C  0.75260666  0.55034301  0.96704070     0.00940
C1303       C  0.76894099  0.53337399  0.95482667    -0.11240
C1304       C  0.79041592  0.50382167  0.96972054     0.03430
C1305       C  0.79793476  0.49663792  0.99860430    -0.10660
H1306       H  0.74726367  0.55547996  0.00531430     0.09020
H1307       H  0.76284986  0.53969789  0.93253028     0.06550
H1308       H  0.81335811  0.47194077  0.00993005     0.06400
N1309       N  0.34183211  0.49212059  0.61251667    -0.26980
N1310       N  0.32234725  0.46883791  0.59139691    -0.34840
C1311       C  0.30008094  0.46281223  0.59644534     0.01360
C1312       C  0.30524001  0.48456638  0.62167164     0.07380
C1313       C  0.33220194  0.50237516  0.63131723    -0.05720
H1314       H  0.28191348  0.44308655  0.58286491     0.08050
H1315       H  0.34403106  0.52151949  0.65063221     0.09250
Cu1316     Cu  0.32687564  0.44770527  0.55632689     0.44170
Cu1317     Cu  0.38061604  0.50735043  0.61428315     0.41990
Cu1318     Cu  0.39232086  0.46804785  0.55390717     0.43880
N1319       N  0.33474101  0.42704018  0.52317556    -0.34370
N1320       N  0.35888295  0.43256747  0.52227157    -0.28620
C1321       C  0.35755517  0.41047538  0.49930930    -0.04720
C1322       C  0.33110320  0.39097838  0.98505744     0.07490
C1323       C  0.31737003  0.40214382  0.50082713     0.01290
H1324       H  0.37478141  0.40753229  0.99403621     0.08940
H1325       H  0.29670923  0.39081420  0.99715912     0.08020
N1326       N  0.42163860  0.50367299  0.58912998    -0.35820
N1327       N  0.41758437  0.51700636  0.61094248    -0.28000
C1328       C  0.44114187  0.53734940  0.63030812    -0.03240
C1329       C  0.46079681  0.53706075  0.62015896     0.05370
C1330       C  0.44779935  0.51563675  0.59402979     0.03460
H1331       H  0.44394784  0.55071513  0.65050816     0.08570
H1332       H  0.45685467  0.50857437  0.57984727     0.07400
C1333       C  0.32006470  0.35823041  0.96156039     0.03440
C1334       C  0.32095262  0.64686191  0.96900149    -0.12710
C1335       C  0.29832948  0.61778436  0.95274244     0.00940
C1336       C  0.27815018  0.63205926  0.92566468    -0.11240
C1337       C  0.27821785  0.34238159  0.91699557     0.03430
C1338       C  0.29937457  0.37198633  0.93501717    -0.10660
H1339       H  0.33693265  0.63727488  0.98978889     0.09020
H1340       H  0.25947470  0.61242854  0.91309816     0.06550
H1341       H  0.29706127  0.40718082  0.93040199     0.06400
N1342       N  0.37760888  0.32926819  0.67327415    -0.26980
N1343       N  0.38226913  0.63405003  0.65691807    -0.34840
C1344       C  0.40979367  0.29968411  0.66462466     0.01360
C1345       C  0.42328660  0.32975330  0.68652383     0.07380
C1346       C  0.40237014  0.34749594  0.69190142    -0.05720
H1347       H  0.41904815  0.61190241  0.65475870     0.08050
H1348       H  0.40492868  0.37228500  0.70782691     0.09250
Cu1349     Cu  0.35165002  0.60140173  0.62247198     0.44170
Cu1350     Cu  0.33757335  0.67333101  0.66906275     0.41990
Cu1351     Cu  0.28145090  0.61216915  0.60846232     0.43880
N1352       N  0.31897732  0.58256094  0.58428424    -0.34370
N1353       N  0.29244368  0.58653625  0.57863289    -0.28620
C1354       C  0.27606948  0.57531088  0.55118110    -0.04720
C1355       C  0.29335608  0.56383459  0.53920089     0.07490
C1356       C  0.32040850  0.56909396  0.56073693     0.01290
H1357       H  0.25346176  0.57821153  0.54030482     0.08940
H1358       H  0.33970822  0.56560782  0.55906225     0.08020
N1359       N  0.27729649  0.63987229  0.64222353    -0.35820
N1360       N  0.29666750  0.66389432  0.66312831    -0.28000
C1361       C  0.28698546  0.67427395  0.68185727    -0.03240
C1362       C  0.26035919  0.65560239  0.67245992     0.05370
C1363       C  0.25519219  0.63362383  0.64742512     0.03460
H1364       H  0.29914583  0.35856453  0.70174631     0.08570
H1365       H  0.23766636  0.61192475  0.63481972     0.07400
C1366       C  0.28517714  0.55762983  0.00879119     0.03440
C1367       C  0.29939534  0.58206534  0.99660831    -0.12710
C1368       C  0.29068559  0.58059764  0.96699492     0.00940
C1369       C  0.26927175  0.55005133  0.95064107    -0.11240
C1370       C  0.25360224  0.52833304  0.96227514     0.03430
C1371       C  0.26158663  0.53184515  0.99138788    -0.10660
H1372       H  0.31539196  0.60534462  0.01028555     0.09020
H1373       H  0.26278678  0.54581307  0.92808816     0.06550
H1374       H  0.24930451  0.51529623  0.00029889     0.06400
N1375       N  0.12729883  0.51612429  0.69315106    -0.26980
N1376       N  0.12343686  0.50168278  0.71469607    -0.34840
C1377       C  0.09824344  0.51466833  0.71134018     0.01360
C1378       C  0.08487311  0.53785793  0.68593980     0.07380
C1379       C  0.10416812  0.53756449  0.67494436    -0.05720
H1380       H  0.09004479  0.50659237  0.72613647     0.08050
H1381       H  0.10160423  0.55007397  0.65481932     0.09250
Cu1382     Cu  0.15121693  0.46054716  0.74573327     0.44170
Cu1383     Cu  0.16428767  0.50474930  0.69053502     0.41990
Cu1384     Cu  0.21703062  0.43478065  0.74718224     0.43880
N1385       N  0.18151736  0.42263195  0.77691903    -0.34370
N1386       N  0.20656437  0.41498849  0.77886912    -0.28620
C1387       C  0.22299863  0.39794493  0.80478295    -0.04720
C1388       C  0.20735758  0.39458347  0.81970109     0.07490
C1389       C  0.18103397  0.40984619  0.80098542     0.01290
H1390       H  0.24527116  0.39247792  0.81310505     0.08940
H1391       H  0.16338807  0.41504111  0.80534455     0.08020
N1392       N  0.22161855  0.46223129  0.71340880    -0.35820
N1393       N  0.20337544  0.48863321  0.69393674    -0.28000
C1394       C  0.21366824  0.50125382  0.67604487    -0.03240
C1395       C  0.23957696  0.48187158  0.68449084     0.05370
C1396       C  0.24364111  0.45675921  0.70800523     0.03460
H1397       H  0.20281970  0.52250248  0.65785589     0.08570
H1398       H  0.26066353  0.43461967  0.71980071     0.07400
C1399       C  0.21766248  0.38834851  0.85077319     0.03440
C1400       C  0.20433368  0.41160622  0.86422745    -0.12710
C1401       C  0.21368716  0.40960057  0.89381711     0.00940
C1402       C  0.23550139  0.38069114  0.90944271    -0.11240
C1403       C  0.25106165  0.69453970  0.89714405     0.03430
C1404       C  0.24196221  0.36424416  0.86762867    -0.10660
H1405       H  0.18841280  0.43492087  0.85172399     0.09020
H1406       H  0.24257665  0.37681745  0.93211560     0.06550
H1407       H  0.25390171  0.68219336  0.85810855     0.06400
N1408       N  0.16040874  0.63665788  0.74619109    -0.26980
N1409       N  0.18075168  0.61736258  0.76810760    -0.34840
C1410       C  0.20341127  0.61465937  0.76349623     0.01360
C1411       C  0.19746476  0.63460293  0.73756968     0.07380
C1412       C  0.16975345  0.64801106  0.72739103    -0.05720
H1413       H  0.22227415  0.59840038  0.77800122     0.08050
H1414       H  0.15702411  0.33135804  0.70759333     0.09250
Cu1415     Cu  0.17609880  0.59754851  0.80324177     0.44170
Cu1416     Cu  0.12046400  0.64279913  0.74232974     0.41990
Cu1417     Cu  0.10824191  0.61043536  0.80287348     0.43880
N1418       N  0.16753187  0.57975640  0.83637019    -0.34370
N1419       N  0.14284252  0.58233010  0.83632359    -0.28620
C1420       C  0.14435997  0.56211478  0.85983634    -0.04720
C1421       C  0.17149632  0.54729364  0.87547386     0.07490
C1422       C  0.18544035  0.55895148  0.85994406     0.01290
H1423       H  0.12684158  0.55704864  0.86451744     0.08940
H1424       H  0.20663709  0.55021867  0.86454421     0.08020
N1425       N  0.07762427  0.63497524  0.76456287    -0.35820
N1426       N  0.08190475  0.64424652  0.74236732    -0.28000
C1427       C  0.05749064  0.32212562  0.72030428    -0.03240
C1428       C  0.03656631  0.32135381  0.72900136     0.05370
C1429       C  0.05039133  0.64122695  0.75729888     0.03460
H1430       H  0.05570729  0.32906563  0.69957645     0.08570
H1431       H  0.04126665  0.63599792  0.77165160     0.07400
C1432       C  0.18319024  0.51701194  0.89975633     0.03440
C1433       C  0.20479464  0.53376980  0.92511675    -0.12710
C1434       C  0.22706005  0.50677251  0.94257146     0.00940
C1435       C  0.22764744  0.46290324  0.93457821    -0.11240
C1436       C  0.20636339  0.44570686  0.90872035     0.03430
C1437       C  0.18251030  0.47179080  0.89338281    -0.10660
H1438       H  0.20657826  0.56931031  0.92900980     0.09020
H1439       H  0.24701957  0.44535686  0.94640447     0.06550
H1440       H  0.16580733  0.45972973  0.87341292     0.06400
C1441       C  0.25858777  0.64787690  0.71832412    -0.05470
C1442       C  0.24379788  0.65235449  0.68864065     0.00450
C1443       C  0.21407637  0.65217397  0.67546600    -0.08120
C1444       C  0.20041950  0.64372003  0.69227619    -0.05490
C1445       C  0.21501114  0.63941837  0.72214281     0.00440
C1446       C  0.24494533  0.64248587  0.73554411    -0.08030
C1447       C  0.26317140  0.63994131  0.76755941     0.62350
H1448       H  0.28128869  0.64761443  0.72807215     0.13050
H1449       H  0.17778160  0.64054428  0.68166156     0.13060
C1450       C  0.19613534  0.66184987  0.64402952     0.62590
F1451       F  0.29043687  0.65436185  0.77550153    -0.22580
F1452       F  0.26440004  0.59649944  0.77622047    -0.19910
F1453       F  0.25268175  0.33328793  0.78167310    -0.19590
F1454       F  0.19107535  0.62313497  0.62828224    -0.19640
F1455       F  0.20909039  0.69288346  0.63447511    -0.19960
F1456       F  0.17049641  0.67900129  0.63928159    -0.22640
C1457       C  0.30136167  0.48796723  0.66683474    -0.05470
C1458       C  0.28743812  0.48586328  0.63683783     0.00450
C1459       C  0.25751869  0.48575034  0.62281844    -0.08120
C1460       C  0.24309966  0.48326182  0.63939635    -0.05490
C1461       C  0.25709981  0.48410746  0.66927377     0.00440
C1462       C  0.28677275  0.48866782  0.68331285    -0.08030
C1463       C  0.30334961  0.49560795  0.71534556     0.62350
H1464       H  0.32407591  0.48854769  0.67762480     0.13050
H1465       H  0.22039710  0.48043898  0.62884545     0.13060
C1466       C  0.24002861  0.48930492  0.59074936     0.62590
F1467       F  0.32976045  0.51348613  0.72271667    -0.22580
F1468       F  0.30679269  0.45551257  0.72902908    -0.19910
F1469       F  0.28970001  0.52471418  0.72498694    -0.19590
F1470       F  0.23607965  0.44778313  0.57829920    -0.19640
F1471       F  0.25279878  0.51735741  0.57940555    -0.19960
F1472       F  0.21384837  0.50654404  0.58381599    -0.22640
C1473       C  0.98785322  0.64007429  0.72079509    -0.05470
C1474       C  0.00579809  0.33036887  0.71261835     0.00450
C1475       C  0.99396236  0.36291613  0.69100724    -0.08120
C1476       C  0.96521882  0.37230249  0.68029140    -0.05490
C1477       C  0.94733765  0.34917847  0.68887144     0.00440
C1478       C  0.95883909  0.64774059  0.70891029    -0.08030
C1479       C  0.94140303  0.61807290  0.71822753     0.62350
H1480       H  0.99678597  0.61474816  0.73683865     0.13050
H1481       H  0.95649624  0.39852440  0.66493509     0.13060
C1482       C  0.01082426  0.38800939  0.67879062     0.62590
F1483       F  0.95512070  0.57914714  0.73014072    -0.22580
F1484       F  0.91619840  0.60628647  0.69519124    -0.19910
F1485       F  0.93663938  0.63974724  0.73871052    -0.19590
F1486       F  0.01807090  0.35939344  0.66288520    -0.19640
F1487       F  0.03464736  0.40716956  0.70043355    -0.19960
F1488       F  0.99557998  0.42141293  0.66059005    -0.22640
C1489       C  0.01596176  0.59926090  0.64176921    -0.05470
C1490       C  0.99726322  0.57645790  0.64930272     0.00450
C1491       C  0.00806264  0.54279218  0.67025907    -0.08120
C1492       C  0.03643798  0.53124198  0.68073322    -0.05490
C1493       C  0.05508511  0.55347232  0.67278584     0.00440
C1494       C  0.04473627  0.58960616  0.65363618    -0.08030
C1495       C  0.06312774  0.61859702  0.64519516     0.62350
H1496       H  0.00781455  0.62543025  0.62621511     0.13050
H1497       H  0.04422053  0.50395626  0.69538106     0.13060
C1498       C  0.99047306  0.51874805  0.68204641     0.62590
F1499       F  0.05055878  0.32530664  0.63414594    -0.22580
F1500       F  0.06750206  0.59731947  0.62434079    -0.19910
F1501       F  0.08850501  0.62826635  0.66860968    -0.19590
F1502       F  0.96627848  0.50106362  0.66010546    -0.19640
F1503       F  0.98385439  0.54782173  0.69820175    -0.19960
F1504       F  0.00477405  0.48443255  0.69991945    -0.22640
C1505       C  0.49515816  0.59719104  0.62680299    -0.05470
C1506       C  0.48978626  0.55494889  0.63446530     0.00450
C1507       C  0.51202729  0.53033240  0.65517718    -0.08120
C1508       C  0.53926984  0.54878743  0.66747071    -0.05490
C1509       C  0.54474973  0.59046536  0.65932592     0.00440
C1510       C  0.52252258  0.61556791  0.63905500    -0.08030
C1511       C  0.52786021  0.66156087  0.63080664     0.62350
H1512       H  0.47774719  0.61553542  0.61105422     0.13050
H1513       H  0.55670580  0.53041895  0.68317643     0.13060
C1514       C  0.50710331  0.48405464  0.66325117     0.62590
F1515       F  0.50331617  0.34765621  0.61131285    -0.22580
F1516       F  0.54595863  0.65907028  0.61871749    -0.19910
F1517       F  0.53981984  0.35518432  0.65480729    -0.19590
F1518       F  0.49708701  0.45709874  0.63930680    -0.19640
F1519       F  0.48770113  0.48502128  0.67379064    -0.19960
F1520       F  0.53151633  0.46582550  0.68388274    -0.22640
C1521       C  0.79872251  0.60568819  0.66569832    -0.05470
C1522       C  0.78685435  0.61851835  0.63687997     0.00450
C1523       C  0.75717774  0.62428813  0.62202823    -0.08120
C1524       C  0.74165112  0.62229730  0.63753718    -0.05490
C1525       C  0.75384212  0.61060043  0.66636353     0.00440
C1526       C  0.78246425  0.59881639  0.68008731    -0.08030
C1527       C  0.79637788  0.57744155  0.70926538     0.62350
H1528       H  0.82106283  0.60024145  0.67731789     0.13050
H1529       H  0.71963132  0.63068535  0.62708204     0.13060
C1530       C  0.74097845  0.63203853  0.59014121     0.62590
F1531       F  0.81601091  0.54704413  0.71033825    -0.22580
F1532       F  0.77714922  0.55461261  0.71529009    -0.19910
F1533       F  0.80990900  0.60961318  0.72991687    -0.19590
F1534       F  0.75116559  0.60601334  0.57538126    -0.19640
F1535       F  0.74262471  0.34304115  0.58448430    -0.19960
F1536       F  0.71282113  0.62089274  0.57994284    -0.22640
C1537       C  0.49604284  0.37189360  0.70188677    -0.05470
C1538       C  0.51071423  0.36568290  0.73148195     0.00450
C1539       C  0.49705403  0.34417690  0.74577724    -0.08120
C1540       C  0.46831931  0.33348025  0.73026733    -0.05490
C1541       C  0.45353492  0.34095208  0.70091246     0.00440
C1542       C  0.46766421  0.35921777  0.68613923    -0.08030
C1543       C  0.45283476  0.36622566  0.65407948     0.62350
H1544       H  0.50703401  0.38707057  0.69115389     0.13050
H1545       H  0.45716479  0.65192868  0.74094539     0.13060
C1546       C  0.51273595  0.66371720  0.77676863     0.62590
F1547       F  0.46967913  0.38867980  0.64471805    -0.22580
F1548       F  0.42880903  0.39060113  0.64662246    -0.19910
F1549       F  0.44581991  0.32584786  0.64001122    -0.19590
F1550       F  0.51812445  0.36687923  0.79443225    -0.19640
F1551       F  0.53776736  0.64401897  0.78180582    -0.19960
F1552       F  0.49728608  0.63334425  0.78375193    -0.22640
C1553       C  0.73916557  0.41902130  0.73921252    -0.05470
C1554       C  0.70992264  0.41937980  0.72202424     0.00450
C1555       C  0.69930386  0.41773996  0.69185378    -0.08120
C1556       C  0.71843566  0.41492764  0.68041485    -0.05490
C1557       C  0.74762083  0.41568800  0.69757507     0.00440
C1558       C  0.75830747  0.41819664  0.72768794    -0.08030
C1559       C  0.78952846  0.42158476  0.74797404     0.62350
H1560       H  0.74709833  0.41961712  0.76213368     0.13050
H1561       H  0.71057646  0.41249071  0.65753244     0.13060
C1562       C  0.66822407  0.42031842  0.67121446     0.62590
F1563       F  0.79443069  0.43436759  0.77513787    -0.22580
F1564       F  0.80240450  0.45282573  0.73847601    -0.19910
F1565       F  0.80172062  0.38081376  0.75011281    -0.19590
F1566       F  0.65567953  0.45310969  0.67963133    -0.19640
F1567       F  0.65532013  0.37983645  0.66987061    -0.19960
F1568       F  0.66387992  0.43043313  0.64388823    -0.22640
N1569       N  0.58407690  0.73037891  0.25485868    -0.26980
N1570       N  0.57985433  0.74952720  0.27515557    -0.34840
C1571       C  0.55336008  0.74078952  0.27039324     0.01360
C1572       C  0.54042660  0.71420804  0.24624957     0.07380
C1573       C  0.56042416  0.70896223  0.23674016    -0.05720
H1574       H  0.54398328  0.75472322  0.28287238     0.08050
H1575       H  0.55773414  0.69167958  0.21763002     0.09250
Cu1576     Cu  0.60977317  0.78769118  0.30822165     0.44170
Cu1577     Cu  0.62086415  0.73618680  0.25119565     0.41990
Cu1578     Cu  0.67566441  0.80198116  0.30500957     0.43880
N1579       N  0.64434975  0.82106661  0.33956081    -0.34370
N1580       N  0.66854265  0.82483387  0.33853696    -0.28620
C1581       C  0.68665067  0.84837478  0.36131504    -0.04720
C1582       C  0.67334518  0.86015796  0.37746744     0.07490
C1583       C  0.64640443  0.84268594  0.36294673     0.01290
H1584       H  0.70763350  0.85812708  0.36518174     0.08940
H1585       H  0.62935833  0.84655249  0.36840933     0.08020
N1586       N  0.67800177  0.77686563  0.26924251    -0.35820
N1587       N  0.65803826  0.75164693  0.24992319    -0.28000
C1588       C  0.66592010  0.73885174  0.23020945    -0.03240
C1589       C  0.69198769  0.75777530  0.23685298     0.05370
C1590       C  0.69898553  0.78136796  0.26200441     0.03460
H1591       H  0.65370811  0.71620277  0.21303931     0.08570
H1592       H  0.71807507  0.80035951  0.27426580     0.07400
C1593       C  0.68507006  0.89193424  0.40154554     0.03440
C1594       C  0.68575942  0.93660743  0.39485572    -0.12710
C1595       C  0.70938672  0.63024160  0.41157051     0.00940
C1596       C  0.72840616  0.94816865  0.43878501    -0.11240
C1597       C  0.72634348  0.90480965  0.44712842     0.03430
C1598       C  0.70459858  0.87673953  0.42825863    -0.10660
H1599       H  0.67021925  0.94748399  0.37418051     0.09020
H1600       H  0.74763054  0.63298709  0.45175055     0.06550
H1601       H  0.70563830  0.84141960  0.43244729     0.06400
N1602       N  0.61883525  0.94777118  0.18296086    -0.26980
N1603       N  0.61631989  0.95863259  0.20596840    -0.34840
C1604       C  0.58939507  0.95372870  0.20063781     0.01360
C1605       C  0.57405081  0.94000296  0.17268443     0.07380
C1606       C  0.59335577  0.93596312  0.16212078    -0.05720
H1607       H  0.58179523  0.95802814  0.21629463     0.08050
H1608       H  0.58939129  0.92342106  0.14134577     0.09250
Cu1609     Cu  0.64986600  0.97745168  0.24373342     0.44170
Cu1610     Cu  0.65767339  0.94645409  0.18305191     0.41990
Cu1611     Cu  0.71910786  0.98622543  0.24900006     0.43880
N1612       N  0.68466076  0.99852352  0.27978400    -0.34370
N1613       N  0.71027395  0.00254347  0.28224145    -0.28620
C1614       C  0.72791653  0.01530391  0.30915338    -0.04720
C1615       C  0.71242885  0.01912036  0.32415002     0.07490
C1616       C  0.68513114  0.00857810  0.30471937     0.01290
H1617       H  0.75045331  0.01866142  0.31758246     0.08940
H1618       H  0.66700555  0.00646946  0.30867901     0.08020
N1619       N  0.72065846  0.96447865  0.21240641    -0.35820
N1620       N  0.69887412  0.94926430  0.18916857    -0.28000
C1621       C  0.70757019  0.93811010  0.16980739    -0.03240
C1622       C  0.73617839  0.94655422  0.18132284     0.05370
C1623       C  0.74363768  0.96378660  0.20824559     0.03460
H1624       H  0.69387983  0.92565112  0.14861013     0.08570
H1625       H  0.76403121  0.97638702  0.22340652     0.07400
C1626       C  0.72274746  0.69018830  0.35518930     0.03440
C1627       C  0.70964540  0.66458109  0.36802839    -0.12710
C1628       C  0.71866955  0.66592232  0.39765354     0.00940
C1629       C  0.74064754  0.69565555  0.41394629    -0.11240
C1630       C  0.75527523  0.71890254  0.40166643     0.03430
C1631       C  0.74620607  0.71660250  0.37222431    -0.10660
H1632       H  0.69381563  0.97423559  0.35465483     0.09020
H1633       H  0.74779366  0.69920801  0.43665352     0.06550
H1634       H  0.75740232  0.73486056  0.36277567     0.06400
N1635       N  0.84409167  0.95089592  0.11642799    -0.26980
N1636       N  0.82638953  0.97689706  0.09652752    -0.34840
C1637       C  0.80359265  0.98223647  0.10056498     0.01360
C1638       C  0.80634891  0.95682457  0.12368013     0.07380
C1639       C  0.83268190  0.93777268  0.13324508    -0.05720
H1640       H  0.78670427  0.00355721  0.08747845     0.08050
H1641       H  0.84296149  0.91579822  0.15111871     0.09250
Cu1642     Cu  0.83349332  0.99960157  0.06347802     0.44170
Cu1643     Cu  0.88327072  0.93801213  0.11968948     0.41990
Cu1644     Cu  0.89701556  0.96991042  0.05930437     0.43880
N1645       N  0.84125170  0.68031199  0.02939534    -0.34370
N1646       N  0.86424134  0.67039519  0.02727540    -0.28620
C1647       C  0.86243193  0.68755371  0.00281513    -0.04720
C1648       C  0.83689765  0.70857153  0.98908211     0.07490
C1649       C  0.82416569  0.70324553  0.00649575     0.01290
H1650       H  0.87874461  0.68608932  0.99611743     0.08940
H1651       H  0.80428016  0.71671362  0.00325628     0.08020
N1652       N  0.92638764  0.94283084  0.09738037    -0.35820
N1653       N  0.92165683  0.93361773  0.11932499    -0.28000
C1654       C  0.94568830  0.92089719  0.14132976    -0.03240
C1655       C  0.96678110  0.92066766  0.13287543     0.05450
C1656       C  0.95349937  0.93509943  0.10478223     0.03460
H1657       H  0.94713404  0.91377210  0.16189614     0.08570
H1658       H  0.96293652  0.94007607  0.09067880     0.07400
C1659       C  0.82549586  0.73681850  0.46377586     0.03440
C1660       C  0.80453572  0.71808020  0.43864172    -0.12710
C1661       C  0.78111935  0.74291540  0.42081920     0.00940
C1662       C  0.77880294  0.78649093  0.42839229    -0.11240
C1663       C  0.79947800  0.80511089  0.45403192     0.03430
C1664       C  0.82462141  0.78208418  0.46910023    -0.10660
H1665       H  0.80399946  0.68244110  0.43547413     0.09020
H1666       H  0.75868787  0.80229649  0.41686769     0.06550
H1667       H  0.84057433  0.79575217  0.48905576     0.06400
N1668       N  0.87420327  0.71463544  0.16822827    -0.26980
N1669       N  0.87716069  0.72791188  0.14595475    -0.34840
C1670       C  0.90264818  0.71653413  0.14931731     0.01360
C1671       C  0.91706823  0.69564083  0.17546242     0.07380
C1672       C  0.89813401  0.69563045  0.18688996    -0.05720
H1673       H  0.91038278  0.72437895  0.13411172     0.08050
H1674       H  0.90150149  0.68484156  0.20762841     0.09250
Cu1675     Cu  0.84773243  0.76664433  0.11457436     0.44170
Cu1676     Cu  0.83748724  0.72540161  0.17133072     0.41990
Cu1677     Cu  0.78289819  0.79525007  0.11529883     0.43880
N1678       N  0.81742681  0.80574680  0.08429978    -0.34370
N1679       N  0.79280428  0.81509821  0.08293157    -0.28620
C1680       C  0.77703933  0.83524251  0.05778331    -0.04720
C1681       C  0.79270999  0.83848187  0.04276475     0.07490
C1682       C  0.81833829  0.82018620  0.06078854     0.01290
H1683       H  0.75530487  0.84414914  0.05025387     0.08940
H1684       H  0.83609421  0.81513321  0.05660006     0.08020
N1685       N  0.78056558  0.76862862  0.15081087    -0.35820
N1686       N  0.79934880  0.74227655  0.16981783    -0.28000
C1687       C  0.79057849  0.73023762  0.18904309    -0.03240
C1688       C  0.76549355  0.75108852  0.18260281     0.05370
C1689       C  0.75971836  0.77465856  0.15797732     0.03460
H1690       H  0.80172509  0.70740334  0.20607300     0.08570
H1691       H  0.74167666  0.79517241  0.14620428     0.07400
C1692       C  0.78356729  0.84966010  0.01227783     0.03440
C1693       C  0.75995276  0.87567457  0.49594581    -0.12710
C1694       C  0.75260666  0.88367637  0.46704072     0.00940
C1695       C  0.76894098  0.86670736  0.45482669    -0.11240
C1696       C  0.79041592  0.83715505  0.46972056     0.03430
C1697       C  0.79793476  0.82997129  0.49860432    -0.10660
H1698       H  0.74726368  0.88881332  0.50531432     0.09020
H1699       H  0.76284984  0.87303125  0.43253029     0.06550
H1700       H  0.81335813  0.80527416  0.50993006     0.06400
N1701       N  0.34183208  0.82545395  0.11251664    -0.26980
N1702       N  0.32234724  0.80217121  0.09139690    -0.34840
C1703       C  0.30008094  0.79614551  0.09644534     0.01360
C1704       C  0.30524000  0.81789969  0.12167163     0.07380
C1705       C  0.33220192  0.83570852  0.13131720    -0.05720
H1706       H  0.28191349  0.77641978  0.08286494     0.08050
H1707       H  0.34403103  0.85485289  0.15063216     0.09250
Cu1708     Cu  0.32687563  0.78103855  0.05632688     0.44170
Cu1709     Cu  0.38061599  0.84068388  0.11428307     0.41990
Cu1710     Cu  0.39232075  0.80138145  0.05390703     0.43880
N1711       N  0.33474097  0.76037350  0.02317553    -0.34370
N1712       N  0.35888287  0.76590092  0.02227148    -0.28620
C1713       C  0.35755509  0.74380884  0.99930921    -0.04720
C1714       C  0.33110322  0.72431173  0.48505745     0.07490
C1715       C  0.31737002  0.73547705  0.00082714     0.01290
H1716       H  0.37478143  0.74086564  0.49403622     0.08940
H1717       H  0.29670926  0.72414755  0.49715915     0.08020
N1718       N  0.42163849  0.83700661  0.08912982    -0.35820
N1719       N  0.41758428  0.85033991  0.11094236    -0.28000
C1720       C  0.44114179  0.87068292  0.13030800    -0.03240
C1721       C  0.46079671  0.87039433  0.12015881     0.05370
C1722       C  0.44779923  0.84897038  0.09402962     0.03460
H1723       H  0.44394779  0.88404856  0.15050807     0.08570
H1724       H  0.45685453  0.84190802  0.07984710     0.07400
C1725       C  0.32006471  0.69156376  0.46156040     0.03440
C1726       C  0.32095262  0.98019527  0.46900149    -0.12710
C1727       C  0.29832949  0.95111771  0.45274243     0.00940
C1728       C  0.27815019  0.96539260  0.42566467    -0.11240
C1729       C  0.27821786  0.67571496  0.41699558     0.03430
C1730       C  0.29937458  0.70531969  0.43501719    -0.10660
H1731       H  0.33693265  0.97060825  0.48978889     0.09020
H1732       H  0.25947473  0.94576187  0.41309814     0.06550
H1733       H  0.29706129  0.74051418  0.43040200     0.06400
N1734       N  0.37760892  0.66260159  0.17327411    -0.26980
N1735       N  0.38226914  0.96738344  0.15691805    -0.34840
C1736       C  0.40979369  0.63301747  0.16462462     0.01360
C1737       C  0.42328664  0.66308667  0.18652378     0.07380
C1738       C  0.40237018  0.68082934  0.19190137    -0.05720
H1739       H  0.41904816  0.94523582  0.15475869     0.08050
H1740       H  0.40492873  0.70561840  0.20782687     0.09250
Cu1741     Cu  0.35165003  0.93473512  0.12247197     0.44170
Cu1742     Cu  0.33757335  0.00666437  0.16906275     0.41990
Cu1743     Cu  0.28145091  0.94550243  0.10846233     0.43880
N1744       N  0.31897734  0.91589428  0.08428424    -0.34370
N1745       N  0.29244369  0.91986955  0.07863289    -0.28620
C1746       C  0.27606949  0.90864417  0.05118111    -0.04720
C1747       C  0.29335610  0.89716790  0.03920089     0.07490
C1748       C  0.32040852  0.90242730  0.06073693     0.01290
H1749       H  0.25346177  0.91154479  0.04030483     0.08940
H1750       H  0.33970823  0.89894119  0.05906224     0.08020
N1751       N  0.27729650  0.97320559  0.14222354    -0.35820
N1752       N  0.29666751  0.99722764  0.16312830    -0.28000
C1753       C  0.28698545  0.00760728  0.18185726    -0.03240
C1754       C  0.26035920  0.98893570  0.17245991     0.05370
C1755       C  0.25519220  0.96695712  0.14742512     0.03460
H1756       H  0.29914589  0.69189796  0.20174633     0.08570
H1757       H  0.23766637  0.94525803  0.13481973     0.07400
C1758       C  0.28517715  0.89096317  0.50879119     0.03440
C1759       C  0.29939535  0.91539867  0.49660830    -0.12710
C1760       C  0.29068560  0.91393098  0.46699492     0.00940
C1761       C  0.26927175  0.88338469  0.45064106    -0.11240
C1762       C  0.25360224  0.86166641  0.46227513     0.03430
C1763       C  0.26158663  0.86517851  0.49138787    -0.10660
H1764       H  0.31539198  0.93867794  0.51028555     0.09020
H1765       H  0.26278679  0.87914642  0.42808815     0.06550
H1766       H  0.24930451  0.84862960  0.50029888     0.06400
N1767       N  0.12729885  0.84945765  0.19315107    -0.26980
N1768       N  0.12343689  0.83501615  0.21469609    -0.34840
C1769       C  0.09824346  0.84800168  0.21134020     0.01360
C1770       C  0.08487312  0.87119125  0.18593982     0.07380
C1771       C  0.10416814  0.87089783  0.17494437    -0.05720
H1772       H  0.09004482  0.83992571  0.22613649     0.08050
H1773       H  0.10160423  0.88340729  0.15481932     0.09250
Cu1774     Cu  0.15121696  0.79388053  0.24573329     0.44170
Cu1775     Cu  0.16428769  0.83808266  0.19053503     0.41990
Cu1776     Cu  0.21703064  0.76811400  0.24718225     0.43880
N1777       N  0.18151739  0.75596530  0.27691903    -0.34370
N1778       N  0.20656439  0.74832184  0.27886913    -0.28620
C1779       C  0.22299865  0.73127828  0.30478296    -0.04720
C1780       C  0.20735759  0.72791682  0.31970109     0.07490
C1781       C  0.18103398  0.74317954  0.30098542     0.01290
H1782       H  0.24527118  0.72581126  0.31310506     0.08940
H1783       H  0.16338809  0.74837446  0.30534455     0.08020
N1784       N  0.22161856  0.79556464  0.21340881    -0.35820
N1785       N  0.20337545  0.82196656  0.19393675    -0.28000
C1786       C  0.21366825  0.83458717  0.17604487    -0.03240
C1787       C  0.23957697  0.81520492  0.18449084     0.05370
C1788       C  0.24364112  0.79009256  0.20800523     0.03460
H1789       H  0.20281971  0.85583582  0.15785589     0.08570
H1790       H  0.26066354  0.76795302  0.21980072     0.07400
C1791       C  0.21766249  0.72168187  0.35077320     0.03440
C1792       C  0.20433369  0.74493958  0.36422745    -0.12710
C1793       C  0.21368717  0.74293394  0.39381711     0.00940
C1794       C  0.23550140  0.71402452  0.40944272    -0.11240
C1795       C  0.25106165  0.02787302  0.39714405     0.03430
C1796       C  0.24196223  0.69757753  0.36762868    -0.10660
H1797       H  0.18841281  0.76825423  0.35172398     0.09020
H1798       H  0.24257666  0.71015084  0.43211560     0.06550
H1799       H  0.25390170  0.01552670  0.35810854     0.06400
N1800       N  0.16040870  0.96999121  0.24619105    -0.26980
N1801       N  0.18075166  0.95069597  0.26810758    -0.34840
C1802       C  0.20341126  0.94799280  0.26349622     0.01360
C1803       C  0.19746474  0.96793630  0.23756966     0.07380
C1804       C  0.16975341  0.98134437  0.22739098    -0.05720
H1805       H  0.22227415  0.93173385  0.27800123     0.08050
H1806       H  0.15702412  0.66469134  0.20759331     0.09250
Cu1807     Cu  0.17609878  0.93088194  0.30324176     0.44170
Cu1808     Cu  0.12046395  0.97613239  0.24232967     0.41990
Cu1809     Cu  0.10824184  0.94376854  0.30287339     0.43880
N1810       N  0.16753184  0.91308981  0.33637017    -0.34370
N1811       N  0.14284247  0.91566339  0.33632353    -0.28620
C1812       C  0.14435993  0.89544806  0.35983629    -0.04720
C1813       C  0.17149630  0.88062704  0.37547384     0.07490
C1814       C  0.18544034  0.89228496  0.35994407     0.01290
H1815       H  0.12684153  0.89038181  0.36451735     0.08940
H1816       H  0.20663710  0.88355223  0.36454424     0.08020
N1817       N  0.07762419  0.96830841  0.26456278    -0.35820
N1818       N  0.08190468  0.97757973  0.24236724    -0.28000
C1819       C  0.05749063  0.65545888  0.22030423    -0.03240
C1820       C  0.03656630  0.65468710  0.22900131     0.05370
C1821       C  0.05039125  0.97456013  0.25729877     0.03460
H1822       H  0.05570729  0.66239888  0.19957640     0.08570
H1823       H  0.04126656  0.96933108  0.27165148     0.07400
C1824       C  0.18319025  0.85034533  0.39975631     0.03440
C1825       C  0.20479465  0.86710318  0.42511674    -0.12710
C1826       C  0.22706005  0.84010589  0.44257145     0.00940
C1827       C  0.22764744  0.79623661  0.43457820    -0.11240
C1828       C  0.20636339  0.77904024  0.40872034     0.03430
C1829       C  0.18251030  0.80512419  0.39338279    -0.10660
H1830       H  0.20657827  0.90264369  0.42900978     0.09020
H1831       H  0.24701956  0.77869023  0.44640448     0.06550
H1832       H  0.16580733  0.79306312  0.37341290     0.06400
C1833       C  0.25858776  0.98121028  0.21832411    -0.05470
C1834       C  0.24379788  0.98568782  0.18864064     0.00450
C1835       C  0.21407636  0.98550727  0.17546598    -0.08120
C1836       C  0.20041950  0.97705335  0.19227617    -0.05490
C1837       C  0.21501112  0.97275174  0.22214279     0.00440
C1838       C  0.24494531  0.97581926  0.23554410    -0.08030
C1839       C  0.26317138  0.97327476  0.26755940     0.62350
H1840       H  0.28128868  0.98094783  0.22807215     0.13050
H1841       H  0.17778159  0.97387757  0.18166153     0.13060
C1842       C  0.19613534  0.99518312  0.14402950     0.62590
F1843       F  0.29043685  0.98769533  0.27550152    -0.22580
F1844       F  0.26440004  0.92983291  0.27622049    -0.19910
F1845       F  0.25268177  0.66662127  0.28167311    -0.19590
F1846       F  0.19107536  0.95646820  0.12828224    -0.19640
F1847       F  0.20909039  0.02621670  0.13447507    -0.19960
F1848       F  0.17049640  0.01233454  0.13928155    -0.22640
C1849       C  0.30136167  0.82130058  0.16683473    -0.05470
C1850       C  0.28743812  0.81919660  0.13683782     0.00450
C1851       C  0.25751869  0.81908364  0.12281844    -0.08120
C1852       C  0.24309967  0.81659512  0.13939634    -0.05490
C1853       C  0.25709981  0.81744079  0.16927377     0.00440
C1854       C  0.28677275  0.82200118  0.18331285    -0.08030
C1855       C  0.30334961  0.82894133  0.21534555     0.62350
H1856       H  0.32407591  0.82188106  0.17762479     0.13050
H1857       H  0.22039710  0.81377227  0.12884545     0.13060
C1858       C  0.24002861  0.82263820  0.09074935     0.62590
F1859       F  0.32976045  0.84681952  0.22271665    -0.22580
F1860       F  0.30679269  0.78884597  0.22902908    -0.19910
F1861       F  0.28970001  0.85804758  0.22498692    -0.19590
F1862       F  0.23607965  0.78111640  0.07829920    -0.19640
F1863       F  0.25279877  0.85069067  0.07940553    -0.19960
F1864       F  0.21384837  0.83987731  0.08381598    -0.22640
C1865       C  0.98785314  0.97340760  0.22079497    -0.05470
C1866       C  0.00579809  0.66370218  0.21261831     0.00450
C1867       C  0.99396236  0.69624943  0.19100718    -0.08120
C1868       C  0.96521883  0.70563584  0.18029136    -0.05490
C1869       C  0.94733765  0.68251185  0.18887141     0.00440
C1870       C  0.95883901  0.98107395  0.20891017    -0.08030
C1871       C  0.94140293  0.95140627  0.21822739     0.62350
H1872       H  0.99678586  0.94808144  0.23683851     0.13050
H1873       H  0.95649627  0.73185775  0.16493505     0.13060
C1874       C  0.01082427  0.72134264  0.17879055     0.62590
F1875       F  0.95512057  0.91248048  0.23014054    -0.22580
F1876       F  0.91619829  0.93961991  0.19519109    -0.19910
F1877       F  0.93663929  0.97308059  0.23871040    -0.19590
F1878       F  0.01807088  0.69272665  0.16288513    -0.19640
F1879       F  0.03464738  0.74050280  0.20043346    -0.19960
F1880       F  0.99557999  0.75474619  0.16058997    -0.22640
C1881       C  0.01596174  0.93259410  0.14176920    -0.05470
C1882       C  0.99726321  0.90979107  0.14930272     0.00450
C1883       C  0.00806266  0.87612538  0.17025908    -0.08120
C1884       C  0.03643800  0.86457522  0.18073324    -0.05490
C1885       C  0.05508511  0.88680560  0.17278585     0.00440
C1886       C  0.04473625  0.92293941  0.15363617    -0.08030
C1887       C  0.06312770  0.95193029  0.14519514     0.62350
H1888       H  0.00781450  0.95876344  0.12621509     0.13050
H1889       H  0.04422057  0.83728952  0.19538109     0.13060
C1890       C  0.99047308  0.85208121  0.18204643     0.62590
F1891       F  0.05055871  0.65863984  0.13414581    -0.22580
F1892       F  0.06750203  0.93065274  0.12434078    -0.19910
F1893       F  0.08850497  0.96159968  0.16860965    -0.19590
F1894       F  0.96627851  0.83439677  0.16010549    -0.19640
F1895       F  0.98385441  0.88115488  0.19820177    -0.19960
F1896       F  0.00477410  0.81776572  0.19991947    -0.22640
C1897       C  0.49515814  0.93052455  0.12680299    -0.05470
C1898       C  0.48978618  0.88828234  0.13446518     0.00450
C1899       C  0.51202718  0.86366569  0.15517697    -0.08120
C1900       C  0.53926976  0.88212061  0.16747053    -0.05490
C1901       C  0.54474971  0.92379861  0.15932586     0.00440
C1902       C  0.52252259  0.94890131  0.13905503    -0.08030
C1903       C  0.52786029  0.99489432  0.13080679     0.62350
H1904       H  0.47774720  0.94886904  0.11105428     0.13050
H1905       H  0.55670570  0.86375201  0.18317619     0.13060
C1906       C  0.50710313  0.81738788  0.16325084     0.62590
F1907       F  0.50331613  0.68098930  0.11131266    -0.22580
F1908       F  0.54595870  0.99240379  0.11871763    -0.19910
F1909       F  0.53981977  0.68851762  0.15480710    -0.19590
F1910       F  0.49708670  0.79043215  0.13930639    -0.19640
F1911       F  0.48770101  0.81835453  0.17379039    -0.19960
F1912       F  0.53151613  0.79915855  0.18388230    -0.22640
C1913       C  0.79872262  0.93902154  0.16569855    -0.05470
C1914       C  0.78685446  0.95185148  0.13688016     0.00450
C1915       C  0.75717784  0.95762098  0.12202834    -0.08120
C1916       C  0.74165118  0.95563020  0.13753725    -0.05490
C1917       C  0.75384218  0.94393359  0.16636365     0.00440
C1918       C  0.78246434  0.93214974  0.18008751    -0.08030
C1919       C  0.79637800  0.91077508  0.20926563     0.62350
H1920       H  0.82106296  0.93357495  0.17731815     0.13050
H1921       H  0.71963135  0.96401808  0.12708203     0.13060
C1922       C  0.74097858  0.96537097  0.09014127     0.62590
F1923       F  0.81601098  0.88037755  0.21033853    -0.22580
F1924       F  0.77714937  0.88794630  0.21529046    -0.19910
F1925       F  0.80990918  0.94294681  0.22991703    -0.19590
F1926       F  0.75116601  0.93934595  0.07538151    -0.19640
F1927       F  0.74262456  0.67637374  0.08448417    -0.19960
F1928       F  0.71282134  0.95422460  0.07994287    -0.22640
C1929       C  0.49604294  0.70522673  0.20188678    -0.05470
C1930       C  0.51071428  0.69901614  0.23148198     0.00450
C1931       C  0.49705402  0.67751028  0.24577726    -0.08120
C1932       C  0.46831930  0.66681367  0.23026732    -0.05490
C1933       C  0.45353496  0.67428538  0.20091243     0.00440
C1934       C  0.46766431  0.69255091  0.18613922    -0.08030
C1935       C  0.45283493  0.69955866  0.15407945     0.62350
H1936       H  0.50703415  0.72040360  0.19115392     0.13050
H1937       H  0.45716477  0.98526214  0.24094538     0.13060
C1938       C  0.51273593  0.99705062  0.27676865     0.62590
F1939       F  0.46967937  0.72201267  0.14471804    -0.22580
F1940       F  0.42880921  0.72393420  0.14662233    -0.19910
F1941       F  0.44582009  0.65918080  0.14001126    -0.19590
F1942       F  0.51812423  0.70021279  0.29443223    -0.19640
F1943       F  0.53776734  0.97735238  0.28180586    -0.19960
F1944       F  0.49728604  0.96667768  0.28375194    -0.22640
C1945       C  0.73916559  0.75235476  0.23921254    -0.05470
C1946       C  0.70992266  0.75271326  0.22202426     0.00450
C1947       C  0.69930388  0.75107341  0.19185380    -0.08120
C1948       C  0.71843569  0.74826108  0.18041487    -0.05490
C1949       C  0.74762085  0.74902144  0.19757510     0.00440
C1950       C  0.75830749  0.75153009  0.22768796    -0.08030
C1951       C  0.78952848  0.75491821  0.24797407     0.62350
H1952       H  0.74709835  0.75295060  0.26213370     0.13050
H1953       H  0.71057649  0.74582415  0.15753246     0.13060
C1954       C  0.66822410  0.75365187  0.17121447     0.62590
F1955       F  0.79443072  0.76770103  0.27513790    -0.22580
F1956       F  0.80240453  0.78615918  0.23847603    -0.19910
F1957       F  0.80172064  0.71414721  0.25011283    -0.19590
F1958       F  0.65567956  0.78644314  0.17963135    -0.19640
F1959       F  0.65532015  0.71316990  0.16987063    -0.19960
F1960       F  0.66387995  0.76376658  0.14388825    -0.22640
N1961       N  0.58407689  0.73037894  0.75485866    -0.26980
N1962       N  0.57985431  0.74952724  0.77515555    -0.34840
C1963       C  0.55336006  0.74078955  0.77039322     0.01360
C1964       C  0.54042659  0.71420806  0.74624955     0.07380
C1965       C  0.56042415  0.70896225  0.73674014    -0.05720
H1966       H  0.54398326  0.75472325  0.78287235     0.08050
H1967       H  0.55773413  0.69167960  0.71763001     0.09250
Cu1968     Cu  0.60977314  0.78769123  0.80822162     0.44170
Cu1969     Cu  0.62086414  0.73618683  0.75119564     0.41990
Cu1970     Cu  0.67566440  0.80198121  0.80500955     0.43880
N1971       N  0.64434971  0.82106668  0.83956077    -0.34370
N1972       N  0.66854262  0.82483395  0.83853693    -0.28620
C1973       C  0.68665063  0.84837487  0.86131500    -0.04720
C1974       C  0.67334513  0.86015806  0.87746740     0.07490
C1975       C  0.64640438  0.84268602  0.86294668     0.01290
H1976       H  0.70763346  0.85812718  0.86518171     0.08940
H1977       H  0.62935828  0.84655257  0.86840928     0.08020
N1978       N  0.67800177  0.77686564  0.76924251    -0.35820
N1979       N  0.65803826  0.75164693  0.74992319    -0.28000
C1980       C  0.66592010  0.73885172  0.73020946    -0.03240
C1981       C  0.69198769  0.75777527  0.73685299     0.05370
C1982       C  0.69898553  0.78136795  0.76200441     0.03460
H1983       H  0.65370811  0.71620275  0.71303933     0.08570
H1984       H  0.71807507  0.80035949  0.77426580     0.07400
C1985       C  0.68507000  0.89193434  0.90154550     0.03440
C1986       C  0.68575936  0.93660753  0.89485568    -0.12710
C1987       C  0.70938674  0.63024151  0.91157054     0.00940
C1988       C  0.72840609  0.94816875  0.93878498    -0.11240
C1989       C  0.72634341  0.90480975  0.94712838     0.03430
C1990       C  0.70459852  0.87673963  0.92825859    -0.10660
H1991       H  0.67021920  0.94748409  0.87418047     0.09020
H1992       H  0.74763054  0.63298695  0.95175061     0.06550
H1993       H  0.70563824  0.84141969  0.93244725     0.06400
N1994       N  0.61883526  0.94777116  0.68296085    -0.26980
N1995       N  0.61631989  0.95863258  0.70596838    -0.34840
C1996       C  0.58939508  0.95372870  0.70063779     0.01360
C1997       C  0.57405082  0.94000294  0.67268441     0.07380
C1998       C  0.59335578  0.93596309  0.66212077    -0.05720
H1999       H  0.58179523  0.95802814  0.71629461     0.08050
H2000       H  0.58939130  0.92342102  0.64134576     0.09250
Cu2001     Cu  0.64986600  0.97745169  0.74373340     0.44170
Cu2002     Cu  0.65767340  0.94645406  0.68305190     0.41990
Cu2003     Cu  0.71910786  0.98622542  0.74900006     0.43880
N2004       N  0.68466076  0.99852353  0.77978398    -0.34370
N2005       N  0.71027395  0.00254347  0.78224144    -0.28620
C2006       C  0.72791653  0.01530392  0.80915336    -0.04720
C2007       C  0.71242885  0.01912039  0.82415000     0.07490
C2008       C  0.68513113  0.00857812  0.80471934     0.01290
H2009       H  0.75045331  0.01866143  0.81758245     0.08940
H2010       H  0.66700554  0.00646950  0.80867898     0.08020
N2011       N  0.72065847  0.96447863  0.71240640    -0.35820
N2012       N  0.69887413  0.94926428  0.68916856    -0.28000
C2013       C  0.70757021  0.93811007  0.66980739    -0.03240
C2014       C  0.73617840  0.94655420  0.68132284     0.05370
C2015       C  0.74363769  0.96378658  0.70824558     0.03460
H2016       H  0.69387985  0.92565108  0.64861013     0.08570
H2017       H  0.76403122  0.97638701  0.72340651     0.07400
C2018       C  0.72274757  0.69018826  0.85518940     0.03440
C2019       C  0.70964549  0.66458103  0.86802846    -0.12710
C2020       C  0.71866961  0.66592222  0.89765361     0.00940
C2021       C  0.74064761  0.69565544  0.91394638    -0.11240
C2022       C  0.75527531  0.71890245  0.90166656     0.03430
C2023       C  0.74620617  0.71660245  0.87222444    -0.10660
H2024       H  0.69381560  0.97423567  0.85465480     0.09020
H2025       H  0.74779370  0.69920788  0.93665362     0.06550
H2026       H  0.75740243  0.73486054  0.86277582     0.06400
N2027       N  0.84409170  0.95089595  0.61642800    -0.26980
N2028       N  0.82638955  0.97689709  0.59652754    -0.34840
C2029       C  0.80359267  0.98223648  0.60056499     0.01360
C2030       C  0.80634893  0.95682458  0.62368015     0.07380
C2031       C  0.83268193  0.93777269  0.63324509    -0.05720
H2032       H  0.78670428  0.00355722  0.58747846     0.08050
H2033       H  0.84296152  0.91579823  0.65111872     0.09250
Cu2034     Cu  0.83349335  0.99960161  0.56347804     0.44170
Cu2035     Cu  0.88327074  0.93801217  0.61968950     0.41990
Cu2036     Cu  0.89701558  0.96991043  0.55930438     0.43880
N2037       N  0.84125155  0.68031157  0.52939503    -0.34370
N2038       N  0.86424132  0.67039516  0.52727525    -0.28620
C2039       C  0.86243197  0.68755380  0.50281503    -0.04720
C2040       C  0.83689758  0.70857125  0.48908186     0.07490
C2041       C  0.82416551  0.70324495  0.50649537     0.01290
H2042       H  0.87874477  0.68608976  0.49611748     0.08940
H2043       H  0.80427988  0.71671281  0.50325581     0.08020
N2044       N  0.92638767  0.94283086  0.59738038    -0.35820
N2045       N  0.92165685  0.93361777  0.61932501    -0.28000
C2046       C  0.94568832  0.92089723  0.64132978    -0.03240
C2047       C  0.96678112  0.92066769  0.63287545     0.05450
C2048       C  0.95349939  0.93509945  0.60478224     0.03460
H2049       H  0.94713406  0.91377214  0.66189616     0.08570
H2050       H  0.96293654  0.94007609  0.59067881     0.07400
C2051       C  0.82549590  0.73681864  0.96377604     0.03440
C2052       C  0.80453578  0.71808023  0.93864193    -0.12710
C2053       C  0.78111940  0.74291536  0.92081935     0.00940
C2054       C  0.77880295  0.78649092  0.92839237    -0.11240
C2055       C  0.79947799  0.80511099  0.95403198     0.03430
C2056       C  0.82462142  0.78208435  0.96910032    -0.10660
H2057       H  0.80399955  0.68244111  0.93547441     0.09020
H2058       H  0.75868787  0.80229644  0.91686773     0.06550
H2059       H  0.84057434  0.79575243  0.98905582     0.06400
N2060       N  0.87420329  0.71463526  0.66822831    -0.26980
N2061       N  0.87716069  0.72791160  0.64595476    -0.34840
C2062       C  0.90264818  0.71653387  0.64931733     0.01360
C2063       C  0.91706826  0.69564070  0.67546248     0.07380
C2064       C  0.89813405  0.69563035  0.68689003    -0.05720
H2065       H  0.91038277  0.72437864  0.63411172     0.08050
H2066       H  0.90150156  0.68484157  0.70762851     0.09250
Cu2067     Cu  0.84773238  0.76664392  0.61457432     0.44170
Cu2068     Cu  0.83748726  0.72540146  0.67133076     0.41990
Cu2069     Cu  0.78289818  0.79524983  0.61529882     0.43880
N2070       N  0.81742678  0.80574638  0.58429973    -0.34370
N2071       N  0.79280426  0.81509787  0.58293154    -0.28620
C2072       C  0.77703933  0.83524221  0.55778329    -0.04720
C2073       C  0.79270998  0.83848150  0.54276471     0.07490
C2074       C  0.81833826  0.82018575  0.56078849     0.01290
H2075       H  0.75530489  0.84414893  0.55025387     0.08940
H2076       H  0.83609418  0.81513273  0.55660000     0.08020
N2077       N  0.78056559  0.76862843  0.65081087    -0.35820
N2078       N  0.79934881  0.74227639  0.66981786    -0.28000
C2079       C  0.79057851  0.73023750  0.68904312    -0.03240
C2080       C  0.76549356  0.75108838  0.68260282     0.05370
C2081       C  0.75971836  0.77465838  0.65797732     0.03460
H2082       H  0.80172512  0.70740325  0.70607305     0.08570
H2083       H  0.74167665  0.79517221  0.64620427     0.07400
C2084       C  0.78356731  0.84965982  0.51227781     0.03440
C2085       C  0.75995272  0.87567478  0.99594580    -0.12710
C2086       C  0.75260659  0.88367647  0.96704070     0.00940
C2087       C  0.76894090  0.86670741  0.95482666    -0.11240
C2088       C  0.79041587  0.83715518  0.96972057     0.03430
C2089       C  0.79793475  0.82997154  0.99860435    -0.10660
H2090       H  0.74726364  0.88881357  0.00531431     0.09020
H2091       H  0.76284974  0.87303122  0.93253025     0.06550
H2092       H  0.81335815  0.80527447  0.00993013     0.06400
N2093       N  0.34183210  0.82545391  0.61251664    -0.26980
N2094       N  0.32234725  0.80217118  0.59139691    -0.34840
C2095       C  0.30008095  0.79614547  0.59644535     0.01360
C2096       C  0.30524002  0.81789965  0.62167164     0.07380
C2097       C  0.33220193  0.83570848  0.63131721    -0.05720
H2098       H  0.28191350  0.77641975  0.58286494     0.08050
H2099       H  0.34403104  0.85485285  0.65063217     0.09250
Cu2100     Cu  0.32687564  0.78103853  0.55632688     0.44170
Cu2101     Cu  0.38061600  0.84068385  0.61428308     0.41990
Cu2102     Cu  0.39232076  0.80138143  0.55390703     0.43880
N2103       N  0.33474098  0.76037349  0.52317553    -0.34370
N2104       N  0.35888288  0.76590092  0.52227148    -0.28620
C2105       C  0.35755510  0.74380885  0.49930921    -0.04720
C2106       C  0.33110321  0.72431172  0.98505746     0.07490
C2107       C  0.31737003  0.73547705  0.50082714     0.01290
H2108       H  0.37478142  0.74086563  0.99403623     0.08940
H2109       H  0.29670925  0.72414755  0.99715915     0.08020
N2110       N  0.42163850  0.83700659  0.58912983    -0.35820
N2111       N  0.41758429  0.85033988  0.61094236    -0.28000
C2112       C  0.44114180  0.87068289  0.63030801    -0.03240
C2113       C  0.46079672  0.87039430  0.62015881     0.05370
C2114       C  0.44779924  0.84897036  0.59402962     0.03460
H2115       H  0.44394781  0.88404853  0.65050808     0.08570
H2116       H  0.45685454  0.84190800  0.57984710     0.07400
C2117       C  0.32006471  0.69156375  0.96156041     0.03440
C2118       C  0.32095261  0.98019525  0.96900148    -0.12710
C2119       C  0.29832948  0.95111769  0.95274242     0.00940
C2120       C  0.27815018  0.96539259  0.92566466    -0.11240
C2121       C  0.27821785  0.67571494  0.91699559     0.03430
C2122       C  0.29937457  0.70531968  0.93501719    -0.10660
H2123       H  0.33693265  0.97060823  0.98978888     0.09020
H2124       H  0.25947471  0.94576186  0.91309814     0.06550
H2125       H  0.29706128  0.74051417  0.93040201     0.06400
N2126       N  0.37760892  0.66260152  0.67327413    -0.26980
N2127       N  0.38226916  0.96738341  0.65691806    -0.34840
C2128       C  0.40979369  0.63301739  0.66462463     0.01360
C2129       C  0.42328664  0.66308659  0.68652379     0.07380
C2130       C  0.40237019  0.68082926  0.69190138    -0.05720
H2131       H  0.41904817  0.94523579  0.65475870     0.08050
H2132       H  0.40492874  0.70561833  0.70782688     0.09250
Cu2133     Cu  0.35165005  0.93473509  0.62247198     0.44170
Cu2134     Cu  0.33757337  0.00666435  0.66906276     0.41990
Cu2135     Cu  0.28145092  0.94550244  0.60846234     0.43880
N2136       N  0.31897735  0.91589426  0.58428425    -0.34370
N2137       N  0.29244370  0.91986954  0.57863290    -0.28620
C2138       C  0.27606950  0.90864416  0.55118112    -0.04720
C2139       C  0.29335611  0.89716789  0.53920090     0.07490
C2140       C  0.32040853  0.90242728  0.56073694     0.01290
H2141       H  0.25346178  0.91154480  0.54030484     0.08940
H2142       H  0.33970824  0.89894117  0.55906225     0.08020
N2143       N  0.27729651  0.97320561  0.64222354    -0.35820
N2144       N  0.29666752  0.99722765  0.66312831    -0.28000
C2145       C  0.28698546  0.00760730  0.68185726    -0.03240
C2146       C  0.26035920  0.98893573  0.67245991     0.05370
C2147       C  0.25519221  0.96695714  0.64742512     0.03460
H2148       H  0.29914590  0.69189792  0.70174634     0.08570
H2149       H  0.23766638  0.94525806  0.63481973     0.07400
C2150       C  0.28517714  0.89096317  0.00879118     0.03440
C2151       C  0.29939535  0.91539867  0.99660829    -0.12710
C2152       C  0.29068559  0.91393097  0.96699491     0.00940
C2153       C  0.26927175  0.88338468  0.95064106    -0.11240
C2154       C  0.25360223  0.86166641  0.96227513     0.03430
C2155       C  0.26158662  0.86517851  0.99138787    -0.10660
H2156       H  0.31539197  0.93867794  0.01028554     0.09020
H2157       H  0.26278678  0.87914641  0.92808814     0.06550
H2158       H  0.24930450  0.84862960  0.00029887     0.06400
N2159       N  0.12729886  0.84945763  0.69315107    -0.26980
N2160       N  0.12343690  0.83501615  0.71469609    -0.34840
C2161       C  0.09824348  0.84800169  0.71134021     0.01360
C2162       C  0.08487314  0.87119126  0.68593983     0.07380
C2163       C  0.10416815  0.87089782  0.67494437    -0.05720
H2164       H  0.09004485  0.83992574  0.72613651     0.08050
H2165       H  0.10160424  0.88340728  0.65481932     0.09250
Cu2166     Cu  0.15121697  0.79388052  0.74573329     0.44170
Cu2167     Cu  0.16428769  0.83808261  0.69053502     0.41990
Cu2168     Cu  0.21703064  0.76811394  0.74718225     0.43880
N2169       N  0.18151739  0.75596527  0.77691904    -0.34370
N2170       N  0.20656439  0.74832180  0.77886913    -0.28620
C2171       C  0.22299864  0.73127823  0.80478296    -0.04720
C2172       C  0.20735759  0.72791679  0.81970109     0.07490
C2173       C  0.18103398  0.74317952  0.80098542     0.01290
H2174       H  0.24527117  0.72581120  0.81310506     0.08940
H2175       H  0.16338809  0.74837445  0.80534455     0.08020
N2176       N  0.22161856  0.79556457  0.71340880    -0.35820
N2177       N  0.20337546  0.82196650  0.69393674    -0.28000
C2178       C  0.21366825  0.83458710  0.67604487    -0.03240
C2179       C  0.23957698  0.81520485  0.68449083     0.05370
C2180       C  0.24364112  0.79009248  0.70800522     0.03460
H2181       H  0.20281972  0.85583576  0.65785589     0.08570
H2182       H  0.26066354  0.76795294  0.71980071     0.07400
C2183       C  0.21766248  0.72168184  0.85077320     0.03440
C2184       C  0.20433368  0.74493956  0.86422745    -0.12710
C2185       C  0.21368716  0.74293393  0.89381711     0.00940
C2186       C  0.23550139  0.71402450  0.90944272    -0.11240
C2187       C  0.25106164  0.02787302  0.89714404     0.03430
C2188       C  0.24196222  0.69757750  0.86762868    -0.10660
H2189       H  0.18841281  0.76825421  0.85172398     0.09020
H2190       H  0.24257665  0.71015082  0.93211561     0.06550
H2191       H  0.25390168  0.01552668  0.85810854     0.06400
N2192       N  0.16040871  0.96999123  0.74619105    -0.26980
N2193       N  0.18075166  0.95069598  0.76810757    -0.34840
C2194       C  0.20341126  0.94799281  0.76349621     0.01360
C2195       C  0.19746474  0.96793633  0.73756966     0.07380
C2196       C  0.16975342  0.98134440  0.72739098    -0.05720
H2197       H  0.22227415  0.93173385  0.77800122     0.08050
H2198       H  0.15702415  0.66469140  0.70759335     0.09250
Cu2199     Cu  0.17609878  0.93088194  0.80324175     0.44170
Cu2200     Cu  0.12046395  0.97613242  0.74232967     0.41990
Cu2201     Cu  0.10824185  0.94376858  0.80287340     0.43880
N2202       N  0.16753184  0.91308980  0.83637016    -0.34370
N2203       N  0.14284248  0.91566340  0.83632353    -0.28620
C2204       C  0.14435993  0.89544807  0.85983629    -0.04720
C2205       C  0.17149630  0.88062702  0.87547383     0.07490
C2206       C  0.18544034  0.89228493  0.85994405     0.01290
H2207       H  0.12684154  0.89038185  0.86451736     0.08940
H2208       H  0.20663709  0.88355219  0.86454422     0.08020
N2209       N  0.07762420  0.96830846  0.76456279    -0.35820
N2210       N  0.08190469  0.97757977  0.74236724    -0.28000
C2211       C  0.05749068  0.65545897  0.72030430    -0.03240
C2212       C  0.03656636  0.65468718  0.72900139     0.05370
C2213       C  0.05039126  0.97456018  0.75729878     0.03460
H2214       H  0.05570732  0.66239895  0.69957645     0.08570
H2215       H  0.04126658  0.96933114  0.77165149     0.07400
C2216       C  0.18319024  0.85034532  0.89975630     0.03440
C2217       C  0.20479464  0.86710318  0.92511673    -0.12710
C2218       C  0.22706004  0.84010588  0.94257144     0.00940
C2219       C  0.22764743  0.79623660  0.93457820    -0.11240
C2220       C  0.20636338  0.77904023  0.90872034     0.03430
C2221       C  0.18251029  0.80512418  0.89338279    -0.10660
H2222       H  0.20657827  0.90264369  0.92900977     0.09020
H2223       H  0.24701955  0.77869022  0.94640448     0.06550
H2224       H  0.16580733  0.79306310  0.87341289     0.06400
C2225       C  0.25858777  0.98121031  0.71832411    -0.05470
C2226       C  0.24379788  0.98568785  0.68864064     0.00450
C2227       C  0.21407637  0.98550731  0.67546598    -0.08120
C2228       C  0.20041950  0.97705339  0.69227617    -0.05490
C2229       C  0.21501113  0.97275176  0.72214279     0.00440
C2230       C  0.24494532  0.97581929  0.73554410    -0.08030
C2231       C  0.26317139  0.97327478  0.76755940     0.62350
H2232       H  0.28128868  0.98094786  0.72807215     0.13050
H2233       H  0.17778159  0.97387761  0.68166153     0.13060
C2234       C  0.19613535  0.99518316  0.64402950     0.62590
F2235       F  0.29043685  0.98769536  0.77550152    -0.22580
F2236       F  0.26440004  0.92983293  0.77622049    -0.19910
F2237       F  0.25268180  0.66662121  0.78167313    -0.19590
F2238       F  0.19107536  0.95646824  0.62828223    -0.19640
F2239       F  0.20909039  0.02621673  0.63447506    -0.19960
F2240       F  0.17049641  0.01233458  0.63928155    -0.22640
C2241       C  0.30136168  0.82130052  0.66683473    -0.05470
C2242       C  0.28743813  0.81919655  0.63683783     0.00450
C2243       C  0.25751870  0.81908360  0.62281844    -0.08120
C2244       C  0.24309967  0.81659507  0.63939634    -0.05490
C2245       C  0.25709982  0.81744072  0.66927377     0.00440
C2246       C  0.28677276  0.82200110  0.68331285    -0.08030
C2247       C  0.30334961  0.82894124  0.71534555     0.62350
H2248       H  0.32407592  0.82188100  0.67762480     0.13050
H2249       H  0.22039711  0.81377221  0.62884544     0.13060
C2250       C  0.24002862  0.82263818  0.59074935     0.62590
F2251       F  0.32976046  0.84681943  0.72271666    -0.22580
F2252       F  0.30679269  0.78884588  0.72902908    -0.19910
F2253       F  0.28970002  0.85804749  0.72498693    -0.19590
F2254       F  0.23607965  0.78111638  0.57829919    -0.19640
F2255       F  0.25279879  0.85069065  0.57940554    -0.19960
F2256       F  0.21384838  0.83987730  0.58381598    -0.22640
C2257       C  0.98785315  0.97340765  0.72079499    -0.05470
C2258       C  0.00579814  0.66370222  0.71261838     0.00450
C2259       C  0.99396239  0.69624945  0.69100725    -0.08120
C2260       C  0.96521884  0.70563580  0.68029142    -0.05490
C2261       C  0.94733769  0.68251179  0.68887147     0.00440
C2262       C  0.95883902  0.98107400  0.70891019    -0.08030
C2263       C  0.94140294  0.95140632  0.71822741     0.62350
H2264       H  0.99678588  0.94808150  0.73683854     0.13050
H2265       H  0.95649626  0.73185769  0.66493509     0.13060
C2266       C  0.01082428  0.72134270  0.67879061     0.62590
F2267       F  0.95512059  0.91248053  0.73014057    -0.22580
F2268       F  0.91619831  0.93961995  0.69519111    -0.19910
F2269       F  0.93663931  0.97308064  0.73871041    -0.19590
F2270       F  0.01807091  0.69272673  0.66288520    -0.19640
F2271       F  0.03464738  0.74050288  0.70043353    -0.19960
F2272       F  0.99557999  0.75474622  0.66059003    -0.22640
C2273       C  0.01596176  0.93259411  0.64176920    -0.05470
C2274       C  0.99726323  0.90979110  0.64930273     0.00450
C2275       C  0.00806268  0.87612542  0.67025910    -0.08120
C2276       C  0.03643802  0.86457525  0.68073326    -0.05490
C2277       C  0.05508513  0.88680562  0.67278586     0.00440
C2278       C  0.04473627  0.92293942  0.65363618    -0.08030
C2279       C  0.06312772  0.95193029  0.64519514     0.62350
H2280       H  0.00781452  0.95876344  0.62621509     0.13050
H2281       H  0.04422059  0.83728956  0.69538111     0.13060
C2282       C  0.99047311  0.85208128  0.68204646     0.62590
F2283       F  0.05055877  0.65863995  0.63414588    -0.22580
F2284       F  0.06750205  0.93065274  0.62434078    -0.19910
F2285       F  0.08850499  0.96159967  0.66860965    -0.19590
F2286       F  0.96627854  0.83439682  0.66010553    -0.19640
F2287       F  0.98385444  0.88115496  0.69820180    -0.19960
F2288       F  0.00477412  0.81776579  0.69991951    -0.22640
C2289       C  0.49515815  0.93052453  0.62680299    -0.05470
C2290       C  0.48978619  0.88828232  0.63446518     0.00450
C2291       C  0.51202719  0.86366566  0.65517696    -0.08120
C2292       C  0.53926978  0.88212058  0.66747052    -0.05490
C2293       C  0.54474972  0.92379858  0.65932585     0.00440
C2294       C  0.52252259  0.94890129  0.63905503    -0.08030
C2295       C  0.52786029  0.99489430  0.63080680     0.62350
H2296       H  0.47774720  0.94886903  0.61105429     0.13050
H2297       H  0.55670572  0.86375198  0.68317617     0.13060
C2298       C  0.50710315  0.81738785  0.66325083     0.62590
F2299       F  0.50331610  0.68098903  0.61131255    -0.22580
F2300       F  0.54595870  0.99240379  0.61871763    -0.19910
F2301       F  0.53981971  0.68851762  0.65480699    -0.19590
F2302       F  0.49708671  0.79043212  0.63930637    -0.19640
F2303       F  0.48770104  0.81835449  0.67379039    -0.19960
F2304       F  0.53151615  0.79915851  0.68388228    -0.22640
C2305       C  0.79872264  0.93902154  0.66569856    -0.05470
C2306       C  0.78685448  0.95185148  0.63688017     0.00450
C2307       C  0.75717785  0.95762094  0.62202834    -0.08120
C2308       C  0.74165119  0.95563016  0.63753725    -0.05490
C2309       C  0.75384219  0.94393357  0.66636365     0.00440
C2310       C  0.78246436  0.93214974  0.68008751    -0.08030
C2311       C  0.79637802  0.91077508  0.70926564     0.62350
H2312       H  0.82106298  0.93357497  0.67731816     0.13050
H2313       H  0.71963136  0.96401802  0.62708202     0.13060
C2314       C  0.74097860  0.96537091  0.59014127     0.62590
F2315       F  0.81601100  0.88037754  0.71033853    -0.22580
F2316       F  0.77714939  0.88794631  0.71529048    -0.19910
F2317       F  0.80990920  0.94294681  0.72991704    -0.19590
F2318       F  0.75116605  0.93934590  0.57538152    -0.19640
F2319       F  0.74262474  0.67637456  0.58448434    -0.19960
F2320       F  0.71282137  0.95422450  0.57994287    -0.22640
C2321       C  0.49604293  0.70522673  0.70188677    -0.05470
C2322       C  0.51071427  0.69901613  0.73148197     0.00450
C2323       C  0.49705403  0.67751024  0.74577725    -0.08120
C2324       C  0.46831932  0.66681360  0.73026733    -0.05490
C2325       C  0.45353497  0.67428532  0.70091243     0.00440
C2326       C  0.46766430  0.69255088  0.68613921    -0.08030
C2327       C  0.45283491  0.69955865  0.65407945     0.62350
H2328       H  0.50703412  0.72040362  0.69115391     0.13050
H2329       H  0.45716478  0.98526211  0.74094540     0.13060
C2330       C  0.51273593  0.99705061  0.77676867     0.62590
F2331       F  0.46967932  0.72201269  0.64471804    -0.22580
F2332       F  0.42880917  0.72393415  0.64662234    -0.19910
F2333       F  0.44582008  0.65918079  0.64001126    -0.19590
F2334       F  0.51812427  0.70021273  0.79443223    -0.19640
F2335       F  0.53776735  0.97735237  0.78180589    -0.19960
F2336       F  0.49728605  0.96667768  0.78375197    -0.22640
C2337       C  0.73916560  0.75235471  0.73921256    -0.05470
C2338       C  0.70992266  0.75271321  0.72202427     0.00450
C2339       C  0.69930389  0.75107333  0.69185381    -0.08120
C2340       C  0.71843570  0.74826097  0.68041489    -0.05490
C2341       C  0.74762086  0.74902133  0.69757512     0.00440
C2342       C  0.75830750  0.75153002  0.72768798    -0.08030
C2343       C  0.78952849  0.75491815  0.74797408     0.62350
H2344       H  0.74709836  0.75295057  0.76213372     0.13050
H2345       H  0.71057649  0.74582400  0.65753248     0.13060
C2346       C  0.66822411  0.75365180  0.67121449     0.62590
F2347       F  0.79443072  0.76770100  0.77513791    -0.22580
F2348       F  0.80240454  0.78615909  0.73847604    -0.19910
F2349       F  0.80172065  0.71414714  0.75011287    -0.19590
F2350       F  0.65567957  0.78644308  0.67963135    -0.19640
F2351       F  0.65532015  0.71316985  0.66987064    -0.19960
F2352       F  0.66387996  0.76376650  0.64388827    -0.22640
loop_ 
_geom_bond_atom_site_label_1 
_geom_bond_atom_site_label_2 
_geom_bond_distance 
_geom_bond_site_symmetry_2 
_ccdc_geom_bond_type 
N1            N2   1.322       .  A
N1            C5   1.344       .  A
N1           Cu9   2.069       .  S
N2            C3   1.345       .  A
N2           Cu8   2.080       .  S
C3            C4   1.385       .  A
C3            H6   1.079       .  S
C4            C5   1.383       .  A
C4          C362   1.482       .  S
C5            H7   1.082       .  S
Cu8          N11   2.079       .  S
Cu9          N19   2.068       .  S
Cu10         N12   2.087       .  S
Cu10         N18   2.086       .  S
N11          N12   1.323       .  A
N11          C15   1.351       .  A
N12          C13   1.342       .  A
C13          C14   1.384       .  A
C13          H16   1.082       .  S
C14          C15   1.384       .  A
C14          C25   1.475       .  S
C15          H17   1.082       .  S
N18          N19   1.319       .  A
N18          C22   1.346       .  A
N19          C20   1.344       .  A
C20          C21   1.388       .  A
C20          H23   1.077       .  S
C21          C22   1.393       .  A
C21         C378   1.497       .  S
C22          H24   1.082       .  S
C25          C26   1.399       .  A
C25          C30   1.399       .  A
C26         C811   1.411       .  A
C26          H31   1.081       .  S
C27        C1594   1.411       .  A
C27        C1596   1.412       .  A
C27          C60   1.505       .  S
C28          C29   1.400       .  A
C28         C811   1.412       .  A
C28         H816   1.081       .  S
C29          C30   1.406       .  A
C29         C126   1.471       .  S
C30          H33   1.086       .  S
H32        C1596   1.081       .  S
N34          N35   1.320       .  A
N34          C38   1.346       .  A
N34         Cu42   2.077       .  S
N35          C36   1.342       .  A
N35         Cu41   2.053       .  S
C36          C37   1.379       .  A
C36          H39   1.081       .  S
C37          C38   1.385       .  A
C37         C333   1.471       .  S
C38          H40   1.082       .  S
Cu41         N44   2.054       .  S
Cu42         N52   2.078       .  S
Cu43         N45   2.071       .  S
Cu43         N51   2.072       .  S
N44          N45   1.320       .  A
N44          C48   1.336       .  A
N45          C46   1.348       .  A
C46          C47   1.387       .  A
C46          H49   1.082       .  S
C47          C48   1.381       .  A
C47         C842   1.473       .  S
C48          H50   1.082       .  S
N51          N52   1.323       .  A
N51          C55   1.344       .  A
N52          C53   1.343       .  A
C53          C54   1.385       .  A
C53          H56   1.082       .  S
C54          C55   1.384       .  A
C54         C349   1.483       .  S
C55          H57   1.080       .  S
C58          C59   1.402   1_545  A
C58          C63   1.400       .  A
C58        C1615   1.473       .  S
C59          C60   1.408       .  A
C59        H1632   1.078       .  S
C60          C61   1.405   1_565  A
C61          C62   1.404       .  A
C61          H65   1.082       .  S
C62          C63   1.400       .  A
C62          C93   1.468       .  S
C63          H66   1.084       .  S
H64         C843   1.078       .  S
N67          N68   1.315       .  A
N67          C71   1.343       .  A
N67         Cu75   2.066       .  S
N68          C69   1.342       .  A
N68         Cu74   2.061       .  S
C69          C70   1.392       .  A
C69          H72   1.075       .  S
C70          C71   1.395       .  A
C70         C346   1.500       .  S
C71          H73   1.081       .  S
Cu74        N861   2.062       .  S
Cu75         N85   2.068       .  S
Cu76         N84   2.081       .  S
Cu76        N862   2.079       .  S
N77          N78   1.323       .  A
N77          C81   1.336       .  A
N77       Cu1642   2.062   1_545  S
N78          C79   1.352       .  A
N78       Cu1644   2.079   1_545  S
C79          C80   1.384   1_554  A
C79          H82   1.081   1_554  S
C80          C81   1.378   1_556  A
C80         C483   1.468       .  S
C81          H83   1.083       .  S
N84          N85   1.321       .  A
N84          C88   1.343       .  A
N85          C86   1.342       .  A
C86          C87   1.389       .  A
C86          H89   1.073       .  S
C87          C88   1.392       .  A
C87         C314   1.499       .  S
C88          H90   1.082       .  S
C91          C92   1.399       .  A
C91          C96   1.400       .  A
C91         C472   1.468       .  S
C92          C93   1.403       .  A
C92          H97   1.086       .  S
C93          C94   1.397       .  A
C94          C95   1.408       .  A
C94          H98   1.083       .  S
C95          C96   1.406       .  A
C95         C128   1.492       .  S
C96          H99   1.084       .  S
N100        N101   1.316       .  A
N100        C104   1.345       .  A
N100       Cu108   2.074       .  S
N101        C102   1.342       .  A
N101       Cu107   2.065       .  S
C102        C103   1.392       .  A
C102        H105   1.081       .  S
C103        C104   1.394       .  A
C103        C301   1.501       .  S
C104        H106   1.075       .  S
Cu107       N110   2.066       .  S
Cu108       N118   2.076       .  S
Cu109       N111   2.090       .  S
Cu109       N117   2.092       .  S
N110        N111   1.320       .  A
N110        C114   1.335       .  A
N111        C112   1.355       .  A
C112        C113   1.393       .  A
C112        H115   1.082       .  S
C113        C114   1.386       .  A
C113        C124   1.491       .  S
C114        H116   1.081       .  S
N117        N118   1.324       .  A
N117        C121   1.345       .  A
N118        C119   1.345       .  A
C119        C120   1.386       .  A
C119        H122   1.078       .  S
C120        C121   1.389       .  A
C120        C381   1.492       .  S
C121        H123   1.082       .  S
C124        C517   1.411   1_554  A
C124        C521   1.406   1_554  A
C125        C126   1.411       .  A
C125        C516   1.411       .  A
C125        H130   1.083       .  S
C126        C127   1.401       .  A
C127        C128   1.393       .  A
C127        H131   1.084       .  S
C128        C129   1.404       .  A
C129        C516   1.406       .  A
C129        H132   1.078       .  S
N133        N134   1.319       .  A
N133        C137   1.345       .  A
N133       Cu141   2.080       .  S
N134        C135   1.344       .  A
N134       Cu140   2.070       .  S
C135        C136   1.389       .  A
C135        H138   1.077       .  S
C136        C137   1.392       .  A
C136        C282   1.497       .  S
C137        H139   1.082       .  S
Cu140       N143   2.070       .  S
Cu141       N151   2.081       .  S
Cu142       N144   2.086       .  S
Cu142       N150   2.087       .  S
N143        N144   1.322       .  A
N143        C147   1.340       .  A
N144        C145   1.353   1_554  A
C145        C538   1.386       .  A
C145        H540   1.082       .  S
C146        C537   1.386       .  A
C146        C539   1.380       .  A
C146        C157   1.473       .  S
C147        C538   1.380   1_554  A
C147        H541   1.082   1_554  S
H148        C537   1.082       .  S
H149        C539   1.082       .  S
N150        N151   1.325       .  A
N150        C154   1.347       .  A
N151        C152   1.346       .  A
C152        C153   1.380       .  A
C152        H155   1.081       .  S
C153        C154   1.381       .  A
C153        C330   1.475       .  S
C154        H156   1.082       .  S
C157        C162   1.399       .  A
C157       C1726   1.401   1_545  A
C158        C159   1.412       .  A
C158        C941   1.401       .  A
C158        H163   1.081       .  S
C159        C160   1.413       .  A
C159        C192   1.504       .  S
C160        C945   1.396       .  A
C160        H164   1.081       .  S
C161        C162   1.404       .  A
C161       C1728   1.396   1_545  A
C161       C1795   1.472       .  S
C162        H165   1.086       .  S
N166       N1735   1.321       .  A
N166        C170   1.347   1_565  A
N166      Cu1742   2.080   1_565  S
N167        N950   1.321       .  A
N167        C952   1.338       .  A
N167       Cu173   2.047       .  S
C168       N1735   1.338       .  A
C168        C169   1.377       .  A
C168       H1739   1.078       .  S
C169        C170   1.387   1_565  A
C169        C365   1.475   1_565  S
C170        H172   1.083       .  S
H171        C952   1.078       .  S
Cu173       N176   2.047       .  S
Cu174       N184   2.080       .  S
Cu174       N950   2.080       .  S
Cu175       N177   2.064       .  S
Cu175       N183   2.066       .  S
N176        N177   1.318       .  A
N176        C180   1.340       .  A
N177        C178   1.345       .  A
C178        C179   1.383       .  A
C178        H181   1.082       .  S
C179        C180   1.380       .  A
C179        C582   1.466       .  S
C180        H182   1.082       .  S
N183        N184   1.323       .  A
N183        C187   1.341       .  A
N184        C185   1.345       .  A
C185        C186   1.388       .  A
C185        H972   1.082       .  S
C186        C187   1.384       .  A
C186        C266   1.486       .  S
C187        H189   1.079       .  S
H188       C1753   1.082       .  S
C190        C191   1.402       .  A
C190        C195   1.399       .  A
C190        C571   1.466       .  S
C191        C192   1.410       .  A
C191        H196   1.080       .  S
C192        C193   1.405       .  A
C193        C194   1.401       .  A
C193        H197   1.082       .  S
C194        C195   1.395       .  A
C194        C258   1.465       .  S
C195        H198   1.084       .  S
N199        N200   1.317       .  A
N199        C203   1.346       .  A
N199       Cu207   2.078       .  S
N200        C201   1.341       .  A
N200       Cu206   2.066       .  S
C201        C202   1.392       .  A
C201        H204   1.081       .  S
C202        C203   1.395       .  A
C202        C317   1.502       .  S
C203        H205   1.075       .  S
Cu206       N209   2.066       .  S
Cu207       N217   2.080       .  S
Cu208       N210   2.075       .  S
Cu208       N216   2.076       .  S
N209        N210   1.320       .  A
N209        C213   1.337       .  A
N210        C211   1.350       .  A
C211        C212   1.388       .  A
C211        H214   1.081       .  S
C212        C213   1.386       .  A
C212        C223   1.483       .  S
C213        H215   1.082       .  S
N216        N217   1.323       .  A
N216        C220   1.344       .  A
N217        C218   1.344       .  A
C218        C219   1.386       .  A
C218        H221   1.083       .  S
C219        C220   1.385       .  A
C219        C285   1.486       .  S
C220        H222   1.079       .  S
C223        C224   1.405       .  A
C223        C228   1.408       .  A
C224        C225   1.405       .  A
C224        H229   1.078       .  S
C225        C226   1.398       .  A
C225        C260   1.498       .  S
C226       C1795   1.400       .  A
C226        H230   1.083       .  S
C227       C1010   1.400       .  A
C227       C1012   1.405       .  A
C227        C945   1.472       .  S
C228       C1795   1.405       .  A
C228       H1799   1.083       .  S
H231       C1012   1.083       .  S
N232        N233   1.316       .  A
N232        C236   1.340       .  A
N232       Cu240   2.063       .  S
N233        C234   1.344       .  A
N233       Cu239   2.066       .  S
C234        C235   1.393       .  A
C234        H237   1.075       .  S
C235        C236   1.393       .  A
C235        C269   1.502       .  S
C236       H1022   1.081       .  S
H238       C1804   1.081       .  S
Cu239       N242   2.067       .  S
Cu240       N250   2.065       .  S
Cu241       N243   2.080       .  S
Cu241       N249   2.081       .  S
N242        N243   1.323       .  A
N242        C246   1.338       .  A
N243        C244   1.351       .  A
C244        C245   1.384       .  A
C244        H247   1.082       .  S
C245        C246   1.378       .  A
C245        C256   1.468       .  S
C246        H248   1.083       .  S
N249        N250   1.320       .  A
N249        C253   1.343       .  A
N250       C1035   1.342       .  A
C251       N1818   1.342       .  A
C251        C252   1.389       .  A
C251        H254   1.073       .  S
C252       C1821   1.393       .  A
C252        C298   1.499       .  S
C253       C1036   1.393       .  A
C253        H255   1.082       .  S
C256        C257   1.397       .  A
C256        C261   1.401       .  A
C257        C258   1.400       .  A
C257        H262   1.086       .  S
C258        C259   1.394       .  A
C259        C260   1.411       .  A
C259        H263   1.082       .  S
C260        C261   1.411       .  A
C261        H264   1.082       .  S
C265        C266   1.402       .  A
C265        C270   1.408       .  A
C265        H272   1.082       .  S
C266        C267   1.416       .  A
C267        C268   1.403       .  A
C267        C274   1.520       .  S
C268        C269   1.409       .  A
C268        H273   1.081       .  S
C269        C270   1.427       .  A
C270        C271   1.518       .  S
C271        F275   1.385       .  S
C271        F276   1.382       .  S
C271       F1061   1.380       .  S
C274        F278   1.382       .  S
C274        F279   1.384       .  S
C274        F280   1.385       .  S
F277       C1839   1.380       .  S
C281        C282   1.408       .  A
C281        C286   1.407       .  A
C281        H288   1.082       .  S
C282        C283   1.425       .  A
C283        C284   1.406       .  A
C283        C290   1.518       .  S
C284        C285   1.401       .  A
C284        H289   1.083       .  S
C285        C286   1.418       .  A
C286        C287   1.519       .  S
C287        F291   1.385       .  S
C287        F292   1.381       .  S
C287        F293   1.384       .  S
C290        F294   1.381       .  S
C290        F295   1.378       .  S
C290        F296   1.385       .  S
C297        C302   1.407       .  A
C297       C1082   1.406   1_655  A
C297        H304   1.082       .  S
C298        C299   1.424   1_465  A
C298       C1865   1.406   1_455  A
C299        C300   1.409       .  A
C299        C306   1.522   1_655  S
C300        C301   1.409       .  A
C300        H305   1.080       .  S
C301       C1870   1.423   1_545  A
C302       C1085   1.423       .  A
C302        C303   1.520       .  S
C303        F307   1.385       .  S
C303        F308   1.383       .  S
C303        F309   1.382       .  S
C306        F310   1.378       .  S
C306        F311   1.383       .  S
C306        F312   1.384   1_455  S
C313        C314   1.406   1_455  A
C313        C318   1.408       .  A
C313        H320   1.082       .  S
C314        C315   1.423   1_655  A
C315        C316   1.408       .  A
C315        C322   1.521   1_455  S
C316        C317   1.409       .  A
C316        H321   1.080       .  S
C317        C318   1.423       .  A
C318        C319   1.520       .  S
C319        F324   1.382       .  S
C319        F325   1.383       .  S
C319       F1107   1.385       .  S
C322        F326   1.383       .  S
C322        F327   1.378       .  S
C322        F328   1.383   1_655  S
F323       C1887   1.385       .  S
C329        C330   1.403       .  A
C329        C334   1.409       .  A
C329        H336   1.083       .  S
C330        C331   1.415       .  A
C331        C332   1.404       .  A
C331        C338   1.515       .  S
C332        C333   1.400       .  A
C332        H337   1.084       .  S
C333        C334   1.414       .  A
C334        C335   1.518       .  S
C335        F340   1.383       .  S
C335       F1123   1.385       .  S
C335       F1125   1.384       .  S
C338        F342   1.381       .  S
C338        F343   1.383       .  S
C338        F344   1.385       .  S
F339       C1903   1.385   1_545  S
F341       C1903   1.384   1_545  S
C345        C346   1.410       .  A
C345        C350   1.404       .  A
C345        H352   1.081       .  S
C346        C347   1.428       .  A
C347        C348   1.407       .  A
C347        C354   1.519       .  S
C348        C349   1.401       .  A
C348        H353   1.083       .  S
C349        C350   1.414       .  A
C350        C351   1.519       .  S
C351        F355   1.385       .  S
C351        F356   1.383       .  S
C351        F357   1.382       .  S
C354        F358   1.383       .  S
C354        F360   1.386       .  S
C354       F1143   1.382       .  S
F359       C1922   1.382   1_545  S
C361        C362   1.404       .  A
C361        C366   1.406       .  A
C361        H368   1.083       .  S
C362        C363   1.419       .  A
C363        C364   1.406       .  A
C363       C1938   1.519   1_545  S
C364        C365   1.400       .  A
C364       H1937   1.084   1_545  S
C365        C366   1.417       .  A
C366        C367   1.520       .  S
C367        F371   1.380       .  S
C367        F372   1.383       .  S
C367        F373   1.380   1_545  S
H369       C1148   1.084       .  S
C370       C1147   1.519       .  S
C370        F375   1.384       .  S
C370        F376   1.385       .  S
C370       F1158   1.380       .  S
F374       C1938   1.380   1_545  S
C377        C378   1.406       .  A
C377        C382   1.409       .  A
C377        H384   1.082       .  S
C378        C379   1.424       .  A
C379        C380   1.408       .  A
C379        C386   1.520       .  S
C380        C381   1.403       .  A
C380        H385   1.083       .  S
C381        C382   1.422       .  A
C382        C383   1.520       .  S
C383        F387   1.385       .  S
C383        F388   1.383       .  S
C383        F389   1.381       .  S
C386        F390   1.383       .  S
C386        F391   1.381       .  S
C386        F392   1.385       .  S
N393        N394   1.322       .  A
N393        C397   1.344       .  A
N393       Cu401   2.069       .  S
N394        C395   1.345       .  A
N394       Cu400   2.080       .  S
C395        C396   1.385       .  A
C395        H398   1.079       .  S
C396        C397   1.383       .  A
C396        C754   1.482       .  S
C397        H399   1.082       .  S
Cu400       N403   2.079       .  S
Cu401       N411   2.068       .  S
Cu402       N404   2.087       .  S
Cu402       N410   2.086       .  S
N403        N404   1.323       .  A
N403        C407   1.351       .  A
N404        C405   1.342       .  A
C405        C406   1.384       .  A
C405        H408   1.082       .  S
C406        C407   1.384       .  A
C406        C417   1.475       .  S
C407        H409   1.082       .  S
N410        N411   1.319       .  A
N410        C414   1.346       .  A
N411        C412   1.344       .  A
C412        C413   1.388       .  A
C412        H415   1.077       .  S
C413        C414   1.393       .  A
C413        C770   1.497       .  S
C414        H416   1.082       .  S
C417        C418   1.399       .  A
C417        C422   1.399       .  A
C418       C1203   1.411       .  A
C418        H423   1.081       .  S
C419       C1986   1.411       .  A
C419       C1988   1.412       .  A
C419        C452   1.505       .  S
C420       C1203   1.412       .  A
C420        C421   1.400       .  A
C420       H1208   1.081       .  S
C421        C422   1.406       .  A
C421        C518   1.471       .  S
C422        H425   1.086       .  S
H424       C1988   1.081       .  S
N426        N427   1.320       .  A
N426        C430   1.346       .  A
N426       Cu434   2.077       .  S
N427        C428   1.342       .  A
N427       Cu433   2.053       .  S
C428        C429   1.379       .  A
C428        H431   1.081       .  S
C429        C430   1.385       .  A
C429        C725   1.471       .  S
C430        H432   1.082       .  S
Cu433       N436   2.054       .  S
Cu434       N444   2.078       .  S
Cu435       N437   2.071       .  S
Cu435       N443   2.072       .  S
N436        N437   1.320       .  A
N436        C440   1.336       .  A
N437        C438   1.348       .  A
C438        C439   1.387       .  A
C438        H441   1.082       .  S
C439        C440   1.381       .  A
C439       C1234   1.473       .  S
C440        H442   1.082       .  S
N443        N444   1.323       .  A
N443        C447   1.344       .  A
N444        C445   1.343       .  A
C445        C446   1.385       .  A
C445        H448   1.082       .  S
C446        C447   1.384       .  A
C446        C741   1.483       .  S
C447        H449   1.080       .  S
C450        C451   1.402   1_545  A
C450        C455   1.400       .  A
C450       C2007   1.473       .  S
C451        C452   1.408       .  A
C451       H2024   1.078       .  S
C452        C453   1.405   1_565  A
C453        C454   1.404       .  A
C453        H457   1.082       .  S
C454        C455   1.400       .  A
C454        C485   1.468       .  S
C455        H458   1.084       .  S
H456       C1235   1.078       .  S
N459        N460   1.315       .  A
N459        C463   1.343       .  A
N459       Cu467   2.066       .  S
N460        C461   1.342       .  A
N460       Cu466   2.061       .  S
C461        C462   1.392       .  A
C461        H464   1.075       .  S
C462        C463   1.395       .  A
C462        C738   1.500       .  S
C463        H465   1.081       .  S
Cu466      N1253   2.062       .  S
Cu467       N477   2.068       .  S
Cu468      N1254   2.079       .  S
Cu468       N476   2.081       .  S
N469        N470   1.323       .  A
N469        C473   1.336       .  A
N469      Cu2034   2.062   1_545  S
N470        C471   1.352       .  A
N470      Cu2036   2.079   1_545  S
C471        C472   1.384       .  A
C471        H474   1.081       .  S
C472        C473   1.378       .  A
C473        H475   1.083       .  S
N476        N477   1.321       .  A
N476        C480   1.343       .  A
N477        C478   1.342       .  A
C478        C479   1.389       .  A
C478        H481   1.073       .  S
C479        C480   1.392       .  A
C479        C706   1.499       .  S
C480        H482   1.082       .  S
C483        C484   1.399       .  A
C483        C488   1.400       .  A
C484        C485   1.403       .  A
C484        H489   1.086       .  S
C485        C486   1.397       .  A
C486        C487   1.408       .  A
C486        H490   1.083       .  S
C487        C488   1.406       .  A
C487        C520   1.492       .  S
C488        H491   1.084       .  S
N492        N493   1.316       .  A
N492        C496   1.345       .  A
N492       Cu500   2.074       .  S
N493        C494   1.342       .  A
N493       Cu499   2.065       .  S
C494        C495   1.392       .  A
C494        H497   1.081       .  S
C495        C496   1.394       .  A
C495        C693   1.501       .  S
C496        H498   1.075       .  S
Cu499       N502   2.066       .  S
Cu500       N510   2.076       .  S
Cu501       N503   2.090       .  S
Cu501       N509   2.092       .  S
N502        N503   1.320       .  A
N502        C506   1.335       .  A
N503        C504   1.355       .  A
C504        C505   1.393       .  A
C504        H507   1.082       .  S
C505        C506   1.386       .  A
C505        C516   1.491       .  S
C506        H508   1.081       .  S
N509        N510   1.324       .  A
N509        C513   1.345       .  A
N510        C511   1.345       .  A
C511        C512   1.386       .  A
C511        H514   1.078       .  S
C512        C513   1.389       .  A
C512        C773   1.492       .  S
C513        H515   1.082       .  S
C517        C518   1.411       .  A
C517        H522   1.083   1_556  S
C518        C519   1.401       .  A
C519        C520   1.393       .  A
C519        H523   1.084       .  S
C520        C521   1.404       .  A
C521        H524   1.078   1_556  S
N525        N526   1.319       .  A
N525        C529   1.345       .  A
N525       Cu533   2.080       .  S
N526        C527   1.344       .  A
N526       Cu532   2.070       .  S
C527        C528   1.389       .  A
C527        H530   1.077       .  S
C528        C529   1.392       .  A
C528        C674   1.497       .  S
C529        H531   1.082       .  S
Cu532       N535   2.070       .  S
Cu533       N543   2.081       .  S
Cu534       N536   2.086       .  S
Cu534       N542   2.087       .  S
N535        N536   1.322       .  A
N535        C539   1.340       .  A
N536        C537   1.353       .  A
C538        C549   1.473       .  S
N542        N543   1.325       .  A
N542        C546   1.347       .  A
N543        C544   1.346       .  A
C544        C545   1.380       .  A
C544        H547   1.081       .  S
C545        C546   1.381       .  A
C545        C722   1.475       .  S
C546        H548   1.082       .  S
C549       C2118   1.401   1_545  A
C549        C554   1.399       .  A
C550       C1333   1.401       .  A
C550        C551   1.412       .  A
C550        H555   1.081       .  S
C551        C552   1.413       .  A
C551        C584   1.504       .  S
C552       C1337   1.396       .  A
C552        H556   1.081       .  S
C553       C2120   1.396   1_545  A
C553        C554   1.404       .  A
C553       C2187   1.472       .  S
C554        H557   1.086       .  S
N558       N2127   1.321       .  A
N558        C562   1.347   1_565  A
N558      Cu2134   2.080   1_565  S
N559       N1342   1.321       .  A
N559       C1344   1.338       .  A
N559       Cu565   2.047       .  S
C560       N2127   1.338       .  A
C560        C561   1.377       .  A
C560       H2131   1.078       .  S
C561        C562   1.387   1_565  A
C561        C757   1.475   1_565  S
C562        H564   1.083       .  S
H563       C1344   1.078       .  S
Cu565       N568   2.047       .  S
Cu566      N1342   2.080       .  S
Cu566       N576   2.080       .  S
Cu567       N569   2.064       .  S
Cu567       N575   2.066       .  S
N568        N569   1.318       .  A
N568        C572   1.340       .  A
N569        C570   1.345       .  A
C570        C571   1.383       .  A
C570        H573   1.082       .  S
C571        C572   1.380       .  A
C572        H574   1.082       .  S
N575        N576   1.323       .  A
N575        C579   1.341       .  A
N576        C577   1.345       .  A
C577        C578   1.388       .  A
C577       H1364   1.082       .  S
C578        C579   1.384       .  A
C578        C658   1.486       .  S
C579        H581   1.079       .  S
H580       C2145   1.082       .  S
C582        C583   1.402   1_554  A
C582        C587   1.399   1_554  A
C583        C584   1.410       .  A
C583        H588   1.080   1_556  S
C584        C585   1.405       .  A
C585        C586   1.401       .  A
C585        H589   1.082       .  S
C586        C587   1.395       .  A
C586        C650   1.465       .  S
C587        H590   1.084   1_556  S
N591        N592   1.317       .  A
N591        C595   1.346       .  A
N591       Cu599   2.078       .  S
N592        C593   1.341       .  A
N592       Cu598   2.066       .  S
C593        C594   1.392       .  A
C593        H596   1.081       .  S
C594        C595   1.395       .  A
C594        C709   1.502       .  S
C595        H597   1.075       .  S
Cu598       N601   2.066       .  S
Cu599       N609   2.080       .  S
Cu600       N602   2.075       .  S
Cu600       N608   2.076       .  S
N601        N602   1.320       .  A
N601        C605   1.337       .  A
N602        C603   1.350       .  A
C603        C604   1.388       .  A
C603        H606   1.081       .  S
C604        C605   1.386       .  A
C604        C615   1.483       .  S
C605        H607   1.082       .  S
N608        N609   1.323       .  A
N608        C612   1.344       .  A
N609        C610   1.344       .  A
C610        C611   1.386       .  A
C610        H613   1.083       .  S
C611        C612   1.385       .  A
C611        C677   1.486       .  S
C612        H614   1.079       .  S
C615        C616   1.405       .  A
C615        C620   1.408       .  A
C616        C617   1.405       .  A
C616        H621   1.078       .  S
C617        C618   1.398       .  A
C617        C652   1.498       .  S
C618       C2187   1.400       .  A
C618        H622   1.083       .  S
C619       C1402   1.400       .  A
C619       C1404   1.405       .  A
C619       C1337   1.472       .  S
C620       C2187   1.405       .  A
C620       H2191   1.083       .  S
H623       C1404   1.083       .  S
N624        N625   1.316       .  A
N624        C628   1.340       .  A
N624       Cu632   2.063       .  S
N625        C626   1.344       .  A
N625       Cu631   2.066       .  S
C626        C627   1.393       .  A
C626        H629   1.075       .  S
C627        C628   1.393       .  A
C627        C661   1.502       .  S
C628       H1414   1.081       .  S
H630       C2196   1.081       .  S
Cu631       N634   2.067       .  S
Cu632       N642   2.065       .  S
Cu633       N635   2.080       .  S
Cu633       N641   2.081       .  S
N634        N635   1.323       .  A
N634        C638   1.338       .  A
N635        C636   1.351       .  A
C636        C637   1.384       .  A
C636        H639   1.082       .  S
C637        C638   1.378       .  A
C637        C648   1.468       .  S
C638        H640   1.083       .  S
N641        N642   1.320       .  A
N641        C645   1.343       .  A
N642       C1427   1.342       .  A
C643       N2210   1.342       .  A
C643        C644   1.389       .  A
C643        H646   1.073       .  S
C644       C2213   1.393       .  A
C644        C690   1.499       .  S
C645       C1428   1.393       .  A
C645        H647   1.082       .  S
C648        C649   1.397       .  A
C648        C653   1.401       .  A
C649        C650   1.400       .  A
C649        H654   1.086       .  S
C650        C651   1.394       .  A
C651        C652   1.411       .  A
C651        H655   1.082       .  S
C652        C653   1.411       .  A
C653        H656   1.082       .  S
C657        C658   1.402       .  A
C657        C662   1.408       .  A
C657        H664   1.082       .  S
C658        C659   1.416       .  A
C659        C660   1.403       .  A
C659        C666   1.520       .  S
C660        C661   1.409       .  A
C660        H665   1.081       .  S
C661        C662   1.427       .  A
C662        C663   1.518       .  S
C663        F667   1.385       .  S
C663        F668   1.382       .  S
C663       F1453   1.380       .  S
C666        F670   1.382       .  S
C666        F671   1.384       .  S
C666        F672   1.385       .  S
F669       C2231   1.380       .  S
C673        C674   1.408       .  A
C673        C678   1.407       .  A
C673        H680   1.082       .  S
C674        C675   1.425       .  A
C675        C676   1.406       .  A
C675        C682   1.518       .  S
C676        C677   1.401       .  A
C676        H681   1.083       .  S
C677        C678   1.418       .  A
C678        C679   1.519       .  S
C679        F683   1.385       .  S
C679        F684   1.381       .  S
C679        F685   1.384       .  S
C682        F686   1.381       .  S
C682        F687   1.378       .  S
C682        F688   1.385       .  S
C689       C1474   1.406   1_655  A
C689        C694   1.407       .  A
C689        H696   1.082       .  S
C690       C2257   1.406   1_455  A
C690        C691   1.424   1_465  A
C691        C692   1.409       .  A
C691        C698   1.522   1_655  S
C692        C693   1.409       .  A
C692        H697   1.080       .  S
C693       C2262   1.423   1_545  A
C694       C1477   1.423       .  A
C694        C695   1.520       .  S
C695        F699   1.385       .  S
C695        F700   1.383       .  S
C695        F701   1.382       .  S
C698        F702   1.378       .  S
C698        F703   1.383       .  S
C698        F704   1.384   1_455  S
C705        C706   1.406   1_455  A
C705        C710   1.408       .  A
C705        H712   1.082       .  S
C706        C707   1.423   1_655  A
C707        C708   1.408       .  A
C707        C714   1.521   1_455  S
C708        C709   1.409       .  A
C708        H713   1.080       .  S
C709        C710   1.423       .  A
C710        C711   1.520       .  S
C711       F1499   1.385       .  S
C711        F716   1.382       .  S
C711        F717   1.383       .  S
C714        F718   1.383       .  S
C714        F719   1.378       .  S
C714        F720   1.383   1_655  S
F715       C2279   1.385       .  S
C721        C722   1.403       .  A
C721        C726   1.409       .  A
C721        H728   1.083       .  S
C722        C723   1.415       .  A
C723        C724   1.404       .  A
C723        C730   1.515       .  S
C724        C725   1.400       .  A
C724        H729   1.084       .  S
C725        C726   1.414       .  A
C726        C727   1.518       .  S
C727       F1515   1.385       .  S
C727        F732   1.383       .  S
C727       F1517   1.384       .  S
C730        F734   1.381       .  S
C730        F735   1.383       .  S
C730        F736   1.385       .  S
F731       C2295   1.385   1_545  S
F733       C2295   1.384   1_545  S
C737        C738   1.410       .  A
C737        C742   1.404       .  A
C737        H744   1.081       .  S
C738        C739   1.428       .  A
C739        C740   1.407       .  A
C739        C746   1.519       .  S
C740        C741   1.401       .  A
C740        H745   1.083       .  S
C741        C742   1.414       .  A
C742        C743   1.519       .  S
C743        F747   1.385       .  S
C743        F748   1.383       .  S
C743        F749   1.382       .  S
C746        F750   1.383       .  S
C746       F1535   1.382       .  S
C746        F752   1.386       .  S
F751       C2314   1.382   1_545  S
C753        C754   1.404       .  A
C753        C758   1.406       .  A
C753        H760   1.083       .  S
C754        C755   1.419       .  A
C755        C756   1.406       .  A
C755       C2330   1.519   1_545  S
C756        C757   1.400       .  A
C756       H2329   1.084   1_545  S
C757        C758   1.417       .  A
C758        C759   1.520       .  S
C759        F763   1.380       .  S
C759        F764   1.383       .  S
C759        F765   1.380   1_545  S
H761       C1540   1.084       .  S
C762       C1539   1.519       .  S
C762       F1550   1.380       .  S
C762        F767   1.384       .  S
C762        F768   1.385       .  S
F766       C2330   1.380   1_545  S
C769        C770   1.406       .  A
C769        C774   1.409       .  A
C769        H776   1.082       .  S
C770        C771   1.424       .  A
C771        C772   1.408       .  A
C771        C778   1.520       .  S
C772        C773   1.403       .  A
C772        H777   1.083       .  S
C773        C774   1.422       .  A
C774        C775   1.520       .  S
C775        F779   1.385       .  S
C775        F780   1.383       .  S
C775        F781   1.381       .  S
C778        F782   1.383       .  S
C778        F783   1.381       .  S
C778        F784   1.385       .  S
N785        N786   1.322       .  A
N785        C789   1.344       .  A
N785       Cu793   2.069       .  S
N786        C787   1.345       .  A
N786       Cu792   2.080       .  S
C787        C788   1.385       .  A
C787        H790   1.079       .  S
C788        C789   1.383       .  A
C788       C1146   1.482       .  S
C789        H791   1.082       .  S
Cu792       N795   2.079       .  S
Cu793       N803   2.068       .  S
Cu794       N796   2.087       .  S
Cu794       N802   2.086       .  S
N795        N796   1.323       .  A
N795        C799   1.351       .  A
N796        C797   1.342       .  A
C797        C798   1.384       .  A
C797        H800   1.082       .  S
C798        C799   1.384       .  A
C798        C809   1.475       .  S
C799        H801   1.082       .  S
N802        N803   1.319       .  A
N802        C806   1.346       .  A
N803        C804   1.344       .  A
C804        C805   1.388       .  A
C804        H807   1.077       .  S
C805        C806   1.393       .  A
C805       C1162   1.497       .  S
C806        H808   1.082       .  S
C809        C810   1.399       .  A
C809        C814   1.399       .  A
C810       C1595   1.411       .  A
C810        H815   1.081       .  S
C811        C844   1.505       .  S
C812       C1595   1.412       .  A
C812        C813   1.400       .  A
C812       H1600   1.081       .  S
C813        C814   1.406       .  A
C813        C910   1.471       .  S
C814        H817   1.086       .  S
N818        N819   1.320       .  A
N818        C822   1.346       .  A
N818       Cu826   2.077       .  S
N819        C820   1.342       .  A
N819       Cu825   2.053       .  S
C820        C821   1.379       .  A
C820        H823   1.081       .  S
C821        C822   1.385       .  A
C821       C1117   1.471       .  S
C822        H824   1.082       .  S
Cu825       N828   2.054       .  S
Cu826       N836   2.078       .  S
Cu827       N829   2.071       .  S
Cu827       N835   2.072       .  S
N828        N829   1.320       .  A
N828        C832   1.336       .  A
N829        C830   1.348       .  A
C830        C831   1.387       .  A
C830        H833   1.082       .  S
C831        C832   1.381       .  A
C831       C1626   1.473       .  S
C832        H834   1.082       .  S
N835        N836   1.323       .  A
N835        C839   1.344       .  A
N836        C837   1.343       .  A
C837        C838   1.385       .  A
C837        H840   1.082       .  S
C838        C839   1.384       .  A
C838       C1133   1.483       .  S
C839        H841   1.080       .  S
C842        C843   1.402       .  A
C842        C847   1.400       .  A
C843        C844   1.408       .  A
C844        C845   1.405       .  A
C845        C846   1.404       .  A
C845        H849   1.082       .  S
C846        C847   1.400       .  A
C846        C877   1.468       .  S
C847        H850   1.084       .  S
H848       C1627   1.078       .  S
N851        N852   1.315       .  A
N851        C855   1.343       .  A
N851       Cu859   2.066       .  S
N852        C853   1.342       .  A
N852       Cu858   2.061       .  S
C853        C854   1.392       .  A
C853        H856   1.075       .  S
C854        C855   1.395       .  A
C854       C1130   1.500       .  S
C855        H857   1.081       .  S
Cu858      N1645   2.062       .  S
Cu859       N869   2.068       .  S
Cu860      N1646   2.079       .  S
Cu860       N868   2.081       .  S
N861        N862   1.323       .  A
N861        C865   1.336       .  A
N862        C863   1.352       .  A
C863        C864   1.384   1_554  A
C863        H866   1.081   1_554  S
C864        C865   1.378   1_556  A
C864       C1267   1.468       .  S
C865        H867   1.083       .  S
N868        N869   1.321       .  A
N868        C872   1.343       .  A
N869        C870   1.342       .  A
C870        C871   1.389       .  A
C870        H873   1.073       .  S
C871        C872   1.392       .  A
C871       C1098   1.499       .  S
C872        H874   1.082       .  S
C875        C876   1.399       .  A
C875        C880   1.400       .  A
C875       C1256   1.468       .  S
C876        C877   1.403       .  A
C876        H881   1.086       .  S
C877        C878   1.397       .  A
C878        C879   1.408       .  A
C878        H882   1.083       .  S
C879        C880   1.406       .  A
C879        C912   1.492       .  S
C880        H883   1.084       .  S
N884        N885   1.316       .  A
N884        C888   1.345       .  A
N884       Cu892   2.074       .  S
N885        C886   1.342       .  A
N885       Cu891   2.065       .  S
C886        C887   1.392       .  A
C886        H889   1.081       .  S
C887        C888   1.394       .  A
C887       C1085   1.501       .  S
C888        H890   1.075       .  S
Cu891       N894   2.066       .  S
Cu892       N902   2.076       .  S
Cu893       N895   2.090       .  S
Cu893       N901   2.092       .  S
N894        N895   1.320       .  A
N894        C898   1.335       .  A
N895        C896   1.355       .  A
C896        C897   1.393       .  A
C896        H899   1.082       .  S
C897        C898   1.386       .  A
C897        C908   1.491       .  S
C898        H900   1.081       .  S
N901        N902   1.324       .  A
N901        C905   1.345       .  A
N902        C903   1.345       .  A
C903        C904   1.386       .  A
C903        H906   1.078       .  S
C904        C905   1.389       .  A
C904       C1165   1.492       .  S
C905        H907   1.082       .  S
C908       C1301   1.411   1_554  A
C908       C1305   1.406   1_554  A
C909       C1300   1.411       .  A
C909        C910   1.411       .  A
C909        H914   1.083       .  S
C910        C911   1.401       .  A
C911        C912   1.393       .  A
C911        H915   1.084       .  S
C912        C913   1.404       .  A
C913       C1300   1.406       .  A
C913        H916   1.078       .  S
N917        N918   1.319       .  A
N917        C921   1.345       .  A
N917       Cu925   2.080       .  S
N918        C919   1.344       .  A
N918       Cu924   2.070       .  S
C919        C920   1.389       .  A
C919        H922   1.077       .  S
C920        C921   1.392       .  A
C920       C1066   1.497       .  S
C921        H923   1.082       .  S
Cu924       N927   2.070       .  S
Cu925       N935   2.081       .  S
Cu926       N928   2.086       .  S
Cu926       N934   2.087       .  S
N927        N928   1.322       .  A
N927        C931   1.340       .  A
N928        C929   1.353   1_554  A
C929       C1322   1.386       .  A
C929       H1324   1.082       .  S
C930       C1321   1.386       .  A
C930       C1323   1.380       .  A
C930        C941   1.473       .  S
C931       C1322   1.380   1_554  A
C931       H1325   1.082   1_554  S
H932       C1321   1.082       .  S
H933       C1323   1.082       .  S
N934        N935   1.325       .  A
N934        C938   1.347       .  A
N935        C936   1.346       .  A
C936        C937   1.380       .  A
C936        H939   1.081       .  S
C937        C938   1.381       .  A
C937       C1114   1.475       .  S
C938        H940   1.082       .  S
C941        C946   1.399       .  A
C942       C1725   1.401       .  A
C942        C943   1.412       .  A
C942        H947   1.081       .  S
C943        C944   1.413       .  A
C943        C976   1.504       .  S
C944       C1729   1.396       .  A
C944        H948   1.081       .  S
C945        C946   1.404       .  A
C946        H949   1.086       .  S
N950        C954   1.347       .  A
N951       N1734   1.321       .  A
N951       C1736   1.338       .  A
N951       Cu957   2.047       .  S
C952        C953   1.377       .  A
C953        C954   1.387       .  A
C953       C1149   1.475       .  S
C954        H956   1.083       .  S
H955       C1736   1.078       .  S
Cu957       N960   2.047       .  S
Cu958      N1734   2.080       .  S
Cu958       N968   2.080       .  S
Cu959       N961   2.064       .  S
Cu959       N967   2.066       .  S
N960        N961   1.318       .  A
N960        C964   1.340       .  A
N961        C962   1.345       .  A
C962        C963   1.383       .  A
C962        H965   1.082       .  S
C963        C964   1.380       .  A
C963       C1366   1.466       .  S
C964        H966   1.082       .  S
N967        N968   1.323       .  A
N967        C971   1.341       .  A
N968        C969   1.345       .  A
C969        C970   1.388       .  A
C969       H1756   1.082       .  S
C970        C971   1.384       .  A
C970       C1050   1.486       .  S
C971        H973   1.079       .  S
C974        C975   1.402       .  A
C974        C979   1.399       .  A
C974       C1355   1.466       .  S
C975        C976   1.410       .  A
C975        H980   1.080       .  S
C976        C977   1.405       .  A
C977        C978   1.401       .  A
C977        H981   1.082       .  S
C978        C979   1.395       .  A
C978       C1042   1.465       .  S
C979        H982   1.084       .  S
N983        N984   1.317       .  A
N983        C987   1.346       .  A
N983       Cu991   2.078       .  S
N984        C985   1.341       .  A
N984       Cu990   2.066       .  S
C985        C986   1.392       .  A
C985        H988   1.081       .  S
C986        C987   1.395       .  A
C986       C1101   1.502       .  S
C987        H989   1.075       .  S
Cu990       N993   2.066       .  S
Cu991      N1001   2.080       .  S
Cu992       N994   2.075       .  S
Cu992      N1000   2.076       .  S
N993        N994   1.320       .  A
N993        C997   1.337       .  A
N994        C995   1.350       .  A
C995        C996   1.388       .  A
C995        H998   1.081       .  S
C996        C997   1.386       .  A
C996       C1007   1.483       .  S
C997        H999   1.082       .  S
N1000      N1001   1.323       .  A
N1000      C1004   1.344       .  A
N1001      C1002   1.344       .  A
C1002      C1003   1.386       .  A
C1002      H1005   1.083       .  S
C1003      C1004   1.385       .  A
C1003      C1069   1.486       .  S
C1004      H1006   1.079       .  S
C1007      C1008   1.405       .  A
C1007      C1012   1.408       .  A
C1008      C1009   1.405       .  A
C1008      H1013   1.078       .  S
C1009      C1010   1.398       .  A
C1009      C1044   1.498       .  S
C1010      H1014   1.083       .  S
C1011      C1794   1.400       .  A
C1011      C1796   1.405       .  A
C1011      C1729   1.472       .  S
H1015      C1796   1.083       .  S
N1016      N1017   1.316       .  A
N1016      C1020   1.340       .  A
N1016     Cu1024   2.063       .  S
N1017      C1018   1.344       .  A
N1017     Cu1023   2.066       .  S
C1018      C1019   1.393       .  A
C1018      H1021   1.075       .  S
C1019      C1020   1.393       .  A
C1019      C1053   1.502       .  S
C1020      H1806   1.081       .  S
Cu1023     N1026   2.067       .  S
Cu1024     N1034   2.065       .  S
Cu1025     N1027   2.080       .  S
Cu1025     N1033   2.081       .  S
N1026      N1027   1.323       .  A
N1026      C1030   1.338       .  A
N1027      C1028   1.351       .  A
C1028      C1029   1.384       .  A
C1028      H1031   1.082       .  S
C1029      C1030   1.378       .  A
C1029      C1040   1.468       .  S
C1030      H1032   1.083       .  S
N1033      N1034   1.320       .  A
N1033      C1037   1.343       .  A
N1034      C1819   1.342       .  A
C1035      C1036   1.389       .  A
C1035      H1038   1.073       .  S
C1036      C1082   1.499       .  S
C1037      C1820   1.393       .  A
C1037      H1039   1.082       .  S
C1040      C1041   1.397       .  A
C1040      C1045   1.401       .  A
C1041      C1042   1.400       .  A
C1041      H1046   1.086       .  S
C1042      C1043   1.394       .  A
C1043      C1044   1.411       .  A
C1043      H1047   1.082       .  S
C1044      C1045   1.411       .  A
C1045      H1048   1.082       .  S
C1049      C1050   1.402       .  A
C1049      C1054   1.408       .  A
C1049      H1056   1.082       .  S
C1050      C1051   1.416       .  A
C1051      C1052   1.403       .  A
C1051      C1058   1.520       .  S
C1052      C1053   1.409       .  A
C1052      H1057   1.081       .  S
C1053      C1054   1.427       .  A
C1054      C1055   1.518       .  S
C1055      F1059   1.385       .  S
C1055      F1060   1.382       .  S
C1055      F1845   1.380       .  S
C1058      F1062   1.382       .  S
C1058      F1063   1.384       .  S
C1058      F1064   1.385       .  S
C1065      C1066   1.408       .  A
C1065      C1070   1.407       .  A
C1065      H1072   1.082       .  S
C1066      C1067   1.425       .  A
C1067      C1068   1.406       .  A
C1067      C1074   1.518       .  S
C1068      C1069   1.401       .  A
C1068      H1073   1.083       .  S
C1069      C1070   1.418       .  A
C1070      C1071   1.519       .  S
C1071      F1075   1.385       .  S
C1071      F1076   1.381       .  S
C1071      F1077   1.384       .  S
C1074      F1078   1.381       .  S
C1074      F1079   1.378       .  S
C1074      F1080   1.385       .  S
C1081      C1866   1.406   1_655  A
C1081      C1086   1.407       .  A
C1081      H1088   1.082       .  S
C1082      C1083   1.424   1_455  A
C1083      C1084   1.409       .  A
C1083      C1090   1.522   1_655  S
C1084      C1085   1.409       .  A
C1084      H1089   1.080       .  S
C1086      C1869   1.423       .  A
C1086      C1087   1.520       .  S
C1087      F1091   1.385       .  S
C1087      F1092   1.383       .  S
C1087      F1093   1.382       .  S
C1090      F1094   1.378       .  S
C1090      F1095   1.383       .  S
C1090      F1096   1.384   1_455  S
C1097      C1098   1.406   1_455  A
C1097      C1102   1.408       .  A
C1097      H1104   1.082       .  S
C1098      C1099   1.423   1_655  A
C1099      C1100   1.408       .  A
C1099      C1106   1.521   1_455  S
C1100      C1101   1.409       .  A
C1100      H1105   1.080       .  S
C1101      C1102   1.423       .  A
C1102      C1103   1.520       .  S
C1103      F1891   1.385       .  S
C1103      F1108   1.382       .  S
C1103      F1109   1.383       .  S
C1106      F1110   1.383       .  S
C1106      F1111   1.378       .  S
C1106      F1112   1.383   1_655  S
C1113      C1114   1.403       .  A
C1113      C1118   1.409       .  A
C1113      H1120   1.083       .  S
C1114      C1115   1.415       .  A
C1115      C1116   1.404       .  A
C1115      C1122   1.515       .  S
C1116      C1117   1.400       .  A
C1116      H1121   1.084       .  S
C1117      C1118   1.414       .  A
C1118      C1119   1.518       .  S
C1119      F1907   1.385       .  S
C1119      F1124   1.383       .  S
C1119      F1909   1.384       .  S
C1122      F1126   1.381       .  S
C1122      F1127   1.383       .  S
C1122      F1128   1.385       .  S
C1129      C1130   1.410       .  A
C1129      C1134   1.404       .  A
C1129      H1136   1.081       .  S
C1130      C1131   1.428       .  A
C1131      C1132   1.407       .  A
C1131      C1138   1.519       .  S
C1132      C1133   1.401       .  A
C1132      H1137   1.083       .  S
C1133      C1134   1.414       .  A
C1134      C1135   1.519       .  S
C1135      F1139   1.385       .  S
C1135      F1140   1.383       .  S
C1135      F1141   1.382       .  S
C1138      F1142   1.383       .  S
C1138      F1927   1.382       .  S
C1138      F1144   1.386       .  S
C1145      C1146   1.404       .  A
C1145      C1150   1.406       .  A
C1145      H1152   1.083       .  S
C1146      C1147   1.419       .  A
C1147      C1148   1.406       .  A
C1148      C1149   1.400       .  A
C1149      C1150   1.417       .  A
C1150      C1151   1.520       .  S
C1151      F1155   1.380       .  S
C1151      F1156   1.383       .  S
C1151      F1157   1.380       .  S
H1153      C1932   1.084       .  S
C1154      C1931   1.519       .  S
C1154      F1942   1.380       .  S
C1154      F1159   1.384       .  S
C1154      F1160   1.385       .  S
C1161      C1162   1.406       .  A
C1161      C1166   1.409       .  A
C1161      H1168   1.082       .  S
C1162      C1163   1.424       .  A
C1163      C1164   1.408       .  A
C1163      C1170   1.520       .  S
C1164      C1165   1.403       .  A
C1164      H1169   1.083       .  S
C1165      C1166   1.422       .  A
C1166      C1167   1.520       .  S
C1167      F1171   1.385       .  S
C1167      F1172   1.383       .  S
C1167      F1173   1.381       .  S
C1170      F1174   1.383       .  S
C1170      F1175   1.381       .  S
C1170      F1176   1.385       .  S
N1177      N1178   1.322       .  A
N1177      C1181   1.344       .  A
N1177     Cu1185   2.069       .  S
N1178      C1179   1.345       .  A
N1178     Cu1184   2.080       .  S
C1179      C1180   1.385       .  A
C1179      H1182   1.079       .  S
C1180      C1181   1.383       .  A
C1180      C1538   1.482       .  S
C1181      H1183   1.082       .  S
Cu1184     N1187   2.079       .  S
Cu1185     N1195   2.068       .  S
Cu1186     N1188   2.087       .  S
Cu1186     N1194   2.086       .  S
N1187      N1188   1.323       .  A
N1187      C1191   1.351       .  A
N1188      C1189   1.342       .  A
C1189      C1190   1.384       .  A
C1189      H1192   1.082       .  S
C1190      C1191   1.384       .  A
C1190      C1201   1.475       .  S
C1191      H1193   1.082       .  S
N1194      N1195   1.319       .  A
N1194      C1198   1.346       .  A
N1195      C1196   1.344       .  A
C1196      C1197   1.388       .  A
C1196      H1199   1.077       .  S
C1197      C1198   1.393       .  A
C1197      C1554   1.497       .  S
C1198      H1200   1.082       .  S
C1201      C1202   1.399       .  A
C1201      C1206   1.399       .  A
C1202      C1987   1.411       .  A
C1202      H1207   1.081       .  S
C1203      C1236   1.505       .  S
C1204      C1987   1.412       .  A
C1204      C1205   1.400       .  A
C1204      H1992   1.081       .  S
C1205      C1206   1.406       .  A
C1205      C1302   1.471       .  S
C1206      H1209   1.086       .  S
N1210      N1211   1.320       .  A
N1210      C1214   1.346       .  A
N1210     Cu1218   2.077       .  S
N1211      C1212   1.342       .  A
N1211     Cu1217   2.053       .  S
C1212      C1213   1.379       .  A
C1212      H1215   1.081       .  S
C1213      C1214   1.385       .  A
C1213      C1509   1.471       .  S
C1214      H1216   1.082       .  S
Cu1217     N1220   2.054       .  S
Cu1218     N1228   2.078       .  S
Cu1219     N1221   2.071       .  S
Cu1219     N1227   2.072       .  S
N1220      N1221   1.320       .  A
N1220      C1224   1.336       .  A
N1221      C1222   1.348       .  A
C1222      C1223   1.387       .  A
C1222      H1225   1.082       .  S
C1223      C1224   1.381       .  A
C1223      C2018   1.473       .  S
C1224      H1226   1.082       .  S
N1227      N1228   1.323       .  A
N1227      C1231   1.344       .  A
N1228      C1229   1.343       .  A
C1229      C1230   1.385       .  A
C1229      H1232   1.082       .  S
C1230      C1231   1.384       .  A
C1230      C1525   1.483       .  S
C1231      H1233   1.080       .  S
C1234      C1235   1.402       .  A
C1234      C1239   1.400       .  A
C1235      C1236   1.408       .  A
C1236      C1237   1.405       .  A
C1237      C1238   1.404       .  A
C1237      H1241   1.082       .  S
C1238      C1239   1.400       .  A
C1238      C1269   1.468       .  S
C1239      H1242   1.084       .  S
H1240      C2019   1.078       .  S
N1243      N1244   1.315       .  A
N1243      C1247   1.343       .  A
N1243     Cu1251   2.066       .  S
N1244      C1245   1.342       .  A
N1244     Cu1250   2.061       .  S
C1245      C1246   1.392       .  A
C1245      H1248   1.075       .  S
C1246      C1247   1.395       .  A
C1246      C1522   1.500       .  S
C1247      H1249   1.081       .  S
Cu1250     N2037   2.062       .  S
Cu1251     N1261   2.068       .  S
Cu1252     N2038   2.079       .  S
Cu1252     N1260   2.081       .  S
N1253      N1254   1.323       .  A
N1253      C1257   1.336       .  A
N1254      C1255   1.352       .  A
C1255      C1256   1.384       .  A
C1255      H1258   1.081       .  S
C1256      C1257   1.378       .  A
C1257      H1259   1.083       .  S
N1260      N1261   1.321       .  A
N1260      C1264   1.343       .  A
N1261      C1262   1.342       .  A
C1262      C1263   1.389       .  A
C1262      H1265   1.073       .  S
C1263      C1264   1.392       .  A
C1263      C1490   1.499       .  S
C1264      H1266   1.082       .  S
C1267      C1268   1.399       .  A
C1267      C1272   1.400       .  A
C1268      C1269   1.403       .  A
C1268      H1273   1.086       .  S
C1269      C1270   1.397       .  A
C1270      C1271   1.408       .  A
C1270      H1274   1.083       .  S
C1271      C1272   1.406       .  A
C1271      C1304   1.492       .  S
C1272      H1275   1.084       .  S
N1276      N1277   1.316       .  A
N1276      C1280   1.345       .  A
N1276     Cu1284   2.074       .  S
N1277      C1278   1.342       .  A
N1277     Cu1283   2.065       .  S
C1278      C1279   1.392       .  A
C1278      H1281   1.081       .  S
C1279      C1280   1.394       .  A
C1279      C1477   1.501       .  S
C1280      H1282   1.075       .  S
Cu1283     N1286   2.066       .  S
Cu1284     N1294   2.076       .  S
Cu1285     N1287   2.090       .  S
Cu1285     N1293   2.092       .  S
N1286      N1287   1.320       .  A
N1286      C1290   1.335       .  A
N1287      C1288   1.355       .  A
C1288      C1289   1.393       .  A
C1288      H1291   1.082       .  S
C1289      C1290   1.386       .  A
C1289      C1300   1.491       .  S
C1290      H1292   1.081       .  S
N1293      N1294   1.324       .  A
N1293      C1297   1.345       .  A
N1294      C1295   1.345       .  A
C1295      C1296   1.386       .  A
C1295      H1298   1.078       .  S
C1296      C1297   1.389       .  A
C1296      C1557   1.492       .  S
C1297      H1299   1.082       .  S
C1301      C1302   1.411       .  A
C1301      H1306   1.083   1_556  S
C1302      C1303   1.401       .  A
C1303      C1304   1.393       .  A
C1303      H1307   1.084       .  S
C1304      C1305   1.404       .  A
C1305      H1308   1.078   1_556  S
N1309      N1310   1.319       .  A
N1309      C1313   1.345       .  A
N1309     Cu1317   2.080       .  S
N1310      C1311   1.344       .  A
N1310     Cu1316   2.070       .  S
C1311      C1312   1.389       .  A
C1311      H1314   1.077       .  S
C1312      C1313   1.392       .  A
C1312      C1458   1.497       .  S
C1313      H1315   1.082       .  S
Cu1316     N1319   2.070       .  S
Cu1317     N1327   2.081       .  S
Cu1318     N1320   2.086       .  S
Cu1318     N1326   2.087       .  S
N1319      N1320   1.322       .  A
N1319      C1323   1.340       .  A
N1320      C1321   1.353       .  A
C1322      C1333   1.473       .  S
N1326      N1327   1.325       .  A
N1326      C1330   1.347       .  A
N1327      C1328   1.346       .  A
C1328      C1329   1.380       .  A
C1328      H1331   1.081       .  S
C1329      C1330   1.381       .  A
C1329      C1506   1.475       .  S
C1330      H1332   1.082       .  S
C1333      C1338   1.399       .  A
C1334      C2117   1.401       .  A
C1334      C1335   1.412       .  A
C1334      H1339   1.081       .  S
C1335      C1336   1.413       .  A
C1335      C1368   1.504       .  S
C1336      C2121   1.396       .  A
C1336      H1340   1.081       .  S
C1337      C1338   1.404       .  A
C1338      H1341   1.086       .  S
N1342      C1346   1.347       .  A
N1343      N2126   1.321       .  A
N1343      C2128   1.338       .  A
N1343     Cu1349   2.047       .  S
C1344      C1345   1.377       .  A
C1345      C1346   1.387       .  A
C1345      C1541   1.475       .  S
C1346      H1348   1.083       .  S
H1347      C2128   1.078       .  S
Cu1349     N1352   2.047       .  S
Cu1350     N2126   2.080       .  S
Cu1350     N1360   2.080       .  S
Cu1351     N1353   2.064       .  S
Cu1351     N1359   2.066       .  S
N1352      N1353   1.318       .  A
N1352      C1356   1.340       .  A
N1353      C1354   1.345       .  A
C1354      C1355   1.383       .  A
C1354      H1357   1.082       .  S
C1355      C1356   1.380       .  A
C1356      H1358   1.082       .  S
N1359      N1360   1.323       .  A
N1359      C1363   1.341       .  A
N1360      C1361   1.345       .  A
C1361      C1362   1.388       .  A
C1361      H2148   1.082       .  S
C1362      C1363   1.384       .  A
C1362      C1442   1.486       .  S
C1363      H1365   1.079       .  S
C1366      C1367   1.402   1_554  A
C1366      C1371   1.399   1_554  A
C1367      C1368   1.410       .  A
C1367      H1372   1.080   1_556  S
C1368      C1369   1.405       .  A
C1369      C1370   1.401       .  A
C1369      H1373   1.082       .  S
C1370      C1371   1.395       .  A
C1370      C1434   1.465       .  S
C1371      H1374   1.084   1_556  S
N1375      N1376   1.317       .  A
N1375      C1379   1.346       .  A
N1375     Cu1383   2.078       .  S
N1376      C1377   1.341       .  A
N1376     Cu1382   2.066       .  S
C1377      C1378   1.392       .  A
C1377      H1380   1.081       .  S
C1378      C1379   1.395       .  A
C1378      C1493   1.502       .  S
C1379      H1381   1.075       .  S
Cu1382     N1385   2.066       .  S
Cu1383     N1393   2.080       .  S
Cu1384     N1386   2.075       .  S
Cu1384     N1392   2.076       .  S
N1385      N1386   1.320       .  A
N1385      C1389   1.337       .  A
N1386      C1387   1.350       .  A
C1387      C1388   1.388       .  A
C1387      H1390   1.081       .  S
C1388      C1389   1.386       .  A
C1388      C1399   1.483       .  S
C1389      H1391   1.082       .  S
N1392      N1393   1.323       .  A
N1392      C1396   1.344       .  A
N1393      C1394   1.344       .  A
C1394      C1395   1.386       .  A
C1394      H1397   1.083       .  S
C1395      C1396   1.385       .  A
C1395      C1461   1.486       .  S
C1396      H1398   1.079       .  S
C1399      C1400   1.405       .  A
C1399      C1404   1.408       .  A
C1400      C1401   1.405       .  A
C1400      H1405   1.078       .  S
C1401      C1402   1.398       .  A
C1401      C1436   1.498       .  S
C1402      H1406   1.083       .  S
C1403      C2186   1.400       .  A
C1403      C2188   1.405       .  A
C1403      C2121   1.472       .  S
H1407      C2188   1.083       .  S
N1408      N1409   1.316       .  A
N1408      C1412   1.340       .  A
N1408     Cu1416   2.063       .  S
N1409      C1410   1.344       .  A
N1409     Cu1415   2.066       .  S
C1410      C1411   1.393       .  A
C1410      H1413   1.075       .  S
C1411      C1412   1.393       .  A
C1411      C1445   1.502       .  S
C1412      H2198   1.081       .  S
Cu1415     N1418   2.067       .  S
Cu1416     N1426   2.065       .  S
Cu1417     N1419   2.080       .  S
Cu1417     N1425   2.081       .  S
N1418      N1419   1.323       .  A
N1418      C1422   1.338       .  A
N1419      C1420   1.351       .  A
C1420      C1421   1.384       .  A
C1420      H1423   1.082       .  S
C1421      C1422   1.378       .  A
C1421      C1432   1.468       .  S
C1422      H1424   1.083       .  S
N1425      N1426   1.320       .  A
N1425      C1429   1.343       .  A
N1426      C2211   1.342       .  A
C1427      C1428   1.389       .  A
C1427      H1430   1.073       .  S
C1428      C1474   1.499       .  S
C1429      C2212   1.393       .  A
C1429      H1431   1.082       .  S
C1432      C1433   1.397       .  A
C1432      C1437   1.401       .  A
C1433      C1434   1.400       .  A
C1433      H1438   1.086       .  S
C1434      C1435   1.394       .  A
C1435      C1436   1.411       .  A
C1435      H1439   1.082       .  S
C1436      C1437   1.411       .  A
C1437      H1440   1.082       .  S
C1441      C1442   1.402       .  A
C1441      C1446   1.408       .  A
C1441      H1448   1.082       .  S
C1442      C1443   1.416       .  A
C1443      C1444   1.403       .  A
C1443      C1450   1.520       .  S
C1444      C1445   1.409       .  A
C1444      H1449   1.081       .  S
C1445      C1446   1.427       .  A
C1446      C1447   1.518       .  S
C1447      F1451   1.385       .  S
C1447      F1452   1.382       .  S
C1447      F2237   1.380       .  S
C1450      F1454   1.382       .  S
C1450      F1455   1.384       .  S
C1450      F1456   1.385       .  S
C1457      C1458   1.408       .  A
C1457      C1462   1.407       .  A
C1457      H1464   1.082       .  S
C1458      C1459   1.425       .  A
C1459      C1460   1.406       .  A
C1459      C1466   1.518       .  S
C1460      C1461   1.401       .  A
C1460      H1465   1.083       .  S
C1461      C1462   1.418       .  A
C1462      C1463   1.519       .  S
C1463      F1467   1.385       .  S
C1463      F1468   1.381       .  S
C1463      F1469   1.384       .  S
C1466      F1470   1.381       .  S
C1466      F1471   1.378       .  S
C1466      F1472   1.385       .  S
C1473      C2258   1.406   1_655  A
C1473      C1478   1.407       .  A
C1473      H1480   1.082       .  S
C1474      C1475   1.424   1_455  A
C1475      C1476   1.409       .  A
C1475      C1482   1.522   1_655  S
C1476      C1477   1.409       .  A
C1476      H1481   1.080       .  S
C1478      C2261   1.423       .  A
C1478      C1479   1.520       .  S
C1479      F1483   1.385       .  S
C1479      F1484   1.383       .  S
C1479      F1485   1.382       .  S
C1482      F1486   1.378       .  S
C1482      F1487   1.383       .  S
C1482      F1488   1.384   1_455  S
C1489      C1490   1.406   1_455  A
C1489      C1494   1.408       .  A
C1489      H1496   1.082       .  S
C1490      C1491   1.423   1_655  A
C1491      C1492   1.408       .  A
C1491      C1498   1.521   1_455  S
C1492      C1493   1.409       .  A
C1492      H1497   1.080       .  S
C1493      C1494   1.423       .  A
C1494      C1495   1.520       .  S
C1495      F2283   1.385       .  S
C1495      F1500   1.382       .  S
C1495      F1501   1.383       .  S
C1498      F1502   1.383       .  S
C1498      F1503   1.378       .  S
C1498      F1504   1.383   1_655  S
C1505      C1506   1.403       .  A
C1505      C1510   1.409       .  A
C1505      H1512   1.083       .  S
C1506      C1507   1.415       .  A
C1507      C1508   1.404       .  A
C1507      C1514   1.515       .  S
C1508      C1509   1.400       .  A
C1508      H1513   1.084       .  S
C1509      C1510   1.414       .  A
C1510      C1511   1.518       .  S
C1511      F2299   1.385       .  S
C1511      F1516   1.383       .  S
C1511      F2301   1.384       .  S
C1514      F1518   1.381       .  S
C1514      F1519   1.383       .  S
C1514      F1520   1.385       .  S
C1521      C1522   1.410       .  A
C1521      C1526   1.404       .  A
C1521      H1528   1.081       .  S
C1522      C1523   1.428       .  A
C1523      C1524   1.407       .  A
C1523      C1530   1.519       .  S
C1524      C1525   1.401       .  A
C1524      H1529   1.083       .  S
C1525      C1526   1.414       .  A
C1526      C1527   1.519       .  S
C1527      F1531   1.385       .  S
C1527      F1532   1.383       .  S
C1527      F1533   1.382       .  S
C1530      F1534   1.383       .  S
C1530      F2319   1.382       .  S
C1530      F1536   1.386       .  S
C1537      C1538   1.404       .  A
C1537      C1542   1.406       .  A
C1537      H1544   1.083       .  S
C1538      C1539   1.419       .  A
C1539      C1540   1.406       .  A
C1540      C1541   1.400       .  A
C1541      C1542   1.417       .  A
C1542      C1543   1.520       .  S
C1543      F1547   1.380       .  S
C1543      F1548   1.383       .  S
C1543      F1549   1.380       .  S
H1545      C2324   1.084       .  S
C1546      C2323   1.519       .  S
C1546      F2334   1.380       .  S
C1546      F1551   1.384       .  S
C1546      F1552   1.385       .  S
C1553      C1554   1.406       .  A
C1553      C1558   1.409       .  A
C1553      H1560   1.082       .  S
C1554      C1555   1.424       .  A
C1555      C1556   1.408       .  A
C1555      C1562   1.520       .  S
C1556      C1557   1.403       .  A
C1556      H1561   1.083       .  S
C1557      C1558   1.422       .  A
C1558      C1559   1.520       .  S
C1559      F1563   1.385       .  S
C1559      F1564   1.383       .  S
C1559      F1565   1.381       .  S
C1562      F1566   1.383       .  S
C1562      F1567   1.381       .  S
C1562      F1568   1.385       .  S
N1569      N1570   1.322       .  A
N1569      C1573   1.344       .  A
N1569     Cu1577   2.069       .  S
N1570      C1571   1.345       .  A
N1570     Cu1576   2.080       .  S
C1571      C1572   1.385       .  A
C1571      H1574   1.079       .  S
C1572      C1573   1.383       .  A
C1572      C1930   1.482       .  S
C1573      H1575   1.082       .  S
Cu1576     N1579   2.079       .  S
Cu1577     N1587   2.068       .  S
Cu1578     N1580   2.087       .  S
Cu1578     N1586   2.086       .  S
N1579      N1580   1.323       .  A
N1579      C1583   1.351       .  A
N1580      C1581   1.342       .  A
C1581      C1582   1.384       .  A
C1581      H1584   1.082       .  S
C1582      C1583   1.384       .  A
C1582      C1593   1.475       .  S
C1583      H1585   1.082       .  S
N1586      N1587   1.319       .  A
N1586      C1590   1.346       .  A
N1587      C1588   1.344       .  A
C1588      C1589   1.388       .  A
C1588      H1591   1.077       .  S
C1589      C1590   1.393       .  A
C1589      C1946   1.497       .  S
C1590      H1592   1.082       .  S
C1593      C1594   1.399       .  A
C1593      C1598   1.399       .  A
C1594      H1599   1.081       .  S
C1595      C1628   1.505       .  S
C1596      C1597   1.400       .  A
C1597      C1598   1.406       .  A
C1597      C1694   1.471       .  S
C1598      H1601   1.086       .  S
N1602      N1603   1.320       .  A
N1602      C1606   1.346       .  A
N1602     Cu1610   2.077       .  S
N1603      C1604   1.342       .  A
N1603     Cu1609   2.053       .  S
C1604      C1605   1.379       .  A
C1604      H1607   1.081       .  S
C1605      C1606   1.385       .  A
C1605      C1901   1.471       .  S
C1606      H1608   1.082       .  S
Cu1609     N1612   2.054       .  S
Cu1610     N1620   2.078       .  S
Cu1611     N1613   2.071   1_565  S
Cu1611     N1619   2.072       .  S
N1612      N1613   1.320   1_565  A
N1612      C1616   1.336   1_565  A
N1613      C1614   1.348       .  A
C1614      C1615   1.387       .  A
C1614      H1617   1.082       .  S
C1615      C1616   1.381       .  A
C1616      H1618   1.082       .  S
N1619      N1620   1.323       .  A
N1619      C1623   1.344       .  A
N1620      C1621   1.343       .  A
C1621      C1622   1.385       .  A
C1621      H1624   1.082       .  S
C1622      C1623   1.384       .  A
C1622      C1917   1.483       .  S
C1623      H1625   1.080       .  S
C1626      C1627   1.402       .  A
C1626      C1631   1.400       .  A
C1627      C1628   1.408       .  A
C1628      C1629   1.405       .  A
C1629      C1630   1.404       .  A
C1629      H1633   1.082       .  S
C1630      C1631   1.400       .  A
C1630      C1661   1.468       .  S
C1631      H1634   1.084       .  S
N1635      N1636   1.315       .  A
N1635      C1639   1.343       .  A
N1635     Cu1643   2.066       .  S
N1636      C1637   1.342       .  A
N1636     Cu1642   2.061       .  S
C1637      C1638   1.392       .  A
C1637      H1640   1.075   1_565  S
C1638      C1639   1.395       .  A
C1638      C1914   1.500       .  S
C1639      H1641   1.081       .  S
Cu1643     N1653   2.068       .  S
Cu1644     N1652   2.081       .  S
N1645      N1646   1.323       .  A
N1645      C1649   1.336       .  A
N1646      C1647   1.352       .  A
C1647      C1648   1.384   1_554  A
C1647      H1650   1.081   1_554  S
C1648      C1649   1.378   1_556  A
C1648      C2051   1.468       .  S
C1649      H1651   1.083       .  S
N1652      N1653   1.321       .  A
N1652      C1656   1.343       .  A
N1653      C1654   1.342       .  A
C1654      C1655   1.389       .  A
C1654      H1657   1.073       .  S
C1655      C1656   1.392       .  A
C1655      C1882   1.499       .  S
C1656      H1658   1.082       .  S
C1659      C1660   1.399       .  A
C1659      C1664   1.400       .  A
C1659      C2040   1.468       .  S
C1660      C1661   1.403       .  A
C1660      H1665   1.086       .  S
C1661      C1662   1.397       .  A
C1662      C1663   1.408       .  A
C1662      H1666   1.083       .  S
C1663      C1664   1.406       .  A
C1663      C1696   1.492       .  S
C1664      H1667   1.084       .  S
N1668      N1669   1.316       .  A
N1668      C1672   1.345       .  A
N1668     Cu1676   2.074       .  S
N1669      C1670   1.342       .  A
N1669     Cu1675   2.065       .  S
C1670      C1671   1.392       .  A
C1670      H1673   1.081       .  S
C1671      C1672   1.394       .  A
C1671      C1869   1.501       .  S
C1672      H1674   1.075       .  S
Cu1675     N1678   2.066       .  S
Cu1676     N1686   2.076       .  S
Cu1677     N1679   2.090       .  S
Cu1677     N1685   2.092       .  S
N1678      N1679   1.320       .  A
N1678      C1682   1.335       .  A
N1679      C1680   1.355       .  A
C1680      C1681   1.393       .  A
C1680      H1683   1.082       .  S
C1681      C1682   1.386       .  A
C1681      C1692   1.491       .  S
C1682      H1684   1.081       .  S
N1685      N1686   1.324       .  A
N1685      C1689   1.345       .  A
N1686      C1687   1.345       .  A
C1687      C1688   1.386       .  A
C1687      H1690   1.078       .  S
C1688      C1689   1.389       .  A
C1688      C1949   1.492       .  S
C1689      H1691   1.082       .  S
C1692      C2085   1.411   1_554  A
C1692      C2089   1.406   1_554  A
C1693      C2084   1.411       .  A
C1693      C1694   1.411       .  A
C1693      H1698   1.083       .  S
C1694      C1695   1.401       .  A
C1695      C1696   1.393       .  A
C1695      H1699   1.084       .  S
C1696      C1697   1.404       .  A
C1697      C2084   1.406       .  A
C1697      H1700   1.078       .  S
N1701      N1702   1.319       .  A
N1701      C1705   1.345       .  A
N1701     Cu1709   2.080       .  S
N1702      C1703   1.344       .  A
N1702     Cu1708   2.070       .  S
C1703      C1704   1.389       .  A
C1703      H1706   1.077       .  S
C1704      C1705   1.392       .  A
C1704      C1850   1.497       .  S
C1705      H1707   1.082       .  S
Cu1708     N1711   2.070       .  S
Cu1709     N1719   2.081       .  S
Cu1710     N1712   2.086       .  S
Cu1710     N1718   2.087       .  S
N1711      N1712   1.322       .  A
N1711      C1715   1.340       .  A
N1712      C1713   1.353   1_554  A
C1713      C2106   1.386       .  A
C1713      H2108   1.082       .  S
C1714      C2105   1.386       .  A
C1714      C2107   1.380       .  A
C1714      C1725   1.473       .  S
C1715      C2106   1.380   1_554  A
C1715      H2109   1.082   1_554  S
H1716      C2105   1.082       .  S
H1717      C2107   1.082       .  S
N1718      N1719   1.325       .  A
N1718      C1722   1.347       .  A
N1719      C1720   1.346       .  A
C1720      C1721   1.380       .  A
C1720      H1723   1.081       .  S
C1721      C1722   1.381       .  A
C1721      C1898   1.475       .  S
C1722      H1724   1.082       .  S
C1725      C1730   1.399       .  A
C1726      C1727   1.412       .  A
C1726      H1731   1.081       .  S
C1727      C1728   1.413       .  A
C1727      C1760   1.504       .  S
C1728      H1732   1.081       .  S
C1729      C1730   1.404       .  A
C1730      H1733   1.086       .  S
N1734      C1738   1.347       .  A
N1735     Cu1741   2.047       .  S
C1736      C1737   1.377       .  A
C1737      C1738   1.387       .  A
C1737      C1933   1.475       .  S
C1738      H1740   1.083       .  S
Cu1741     N1744   2.047       .  S
Cu1742     N1752   2.080   1_545  S
Cu1743     N1745   2.064       .  S
Cu1743     N1751   2.066       .  S
N1744      N1745   1.318       .  A
N1744      C1748   1.340       .  A
N1745      C1746   1.345       .  A
C1746      C1747   1.383       .  A
C1746      H1749   1.082       .  S
C1747      C1748   1.380       .  A
C1747      C2150   1.466       .  S
C1748      H1750   1.082       .  S
N1751      N1752   1.323       .  A
N1751      C1755   1.341       .  A
N1752      C1753   1.345   1_565  A
C1753      C1754   1.388   1_545  A
C1754      C1755   1.384       .  A
C1754      C1834   1.486       .  S
C1755      H1757   1.079       .  S
C1758      C1759   1.402       .  A
C1758      C1763   1.399       .  A
C1758      C2139   1.466       .  S
C1759      C1760   1.410       .  A
C1759      H1764   1.080       .  S
C1760      C1761   1.405       .  A
C1761      C1762   1.401       .  A
C1761      H1765   1.082       .  S
C1762      C1763   1.395       .  A
C1762      C1826   1.465       .  S
C1763      H1766   1.084       .  S
N1767      N1768   1.317       .  A
N1767      C1771   1.346       .  A
N1767     Cu1775   2.078       .  S
N1768      C1769   1.341       .  A
N1768     Cu1774   2.066       .  S
C1769      C1770   1.392       .  A
C1769      H1772   1.081       .  S
C1770      C1771   1.395       .  A
C1770      C1885   1.502       .  S
C1771      H1773   1.075       .  S
Cu1774     N1777   2.066       .  S
Cu1775     N1785   2.080       .  S
Cu1776     N1778   2.075       .  S
Cu1776     N1784   2.076       .  S
N1777      N1778   1.320       .  A
N1777      C1781   1.337       .  A
N1778      C1779   1.350       .  A
C1779      C1780   1.388       .  A
C1779      H1782   1.081       .  S
C1780      C1781   1.386       .  A
C1780      C1791   1.483       .  S
C1781      H1783   1.082       .  S
N1784      N1785   1.323       .  A
N1784      C1788   1.344       .  A
N1785      C1786   1.344       .  A
C1786      C1787   1.386       .  A
C1786      H1789   1.083       .  S
C1787      C1788   1.385       .  A
C1787      C1853   1.486       .  S
C1788      H1790   1.079       .  S
C1791      C1792   1.405       .  A
C1791      C1796   1.408       .  A
C1792      C1793   1.405       .  A
C1792      H1797   1.078       .  S
C1793      C1794   1.398       .  A
C1793      C1828   1.498       .  S
C1794      H1798   1.083       .  S
N1800      N1801   1.316       .  A
N1800      C1804   1.340       .  A
N1800     Cu1808   2.063       .  S
N1801      C1802   1.344       .  A
N1801     Cu1807   2.066       .  S
C1802      C1803   1.393       .  A
C1802      H1805   1.075       .  S
C1803      C1804   1.393       .  A
C1803      C1837   1.502       .  S
Cu1807     N1810   2.067       .  S
Cu1808     N1818   2.065       .  S
Cu1809     N1811   2.080       .  S
Cu1809     N1817   2.081       .  S
N1810      N1811   1.323       .  A
N1810      C1814   1.338       .  A
N1811      C1812   1.351       .  A
C1812      C1813   1.384       .  A
C1812      H1815   1.082       .  S
C1813      C1814   1.378       .  A
C1813      C1824   1.468       .  S
C1814      H1816   1.083       .  S
N1817      N1818   1.320       .  A
N1817      C1821   1.343       .  A
C1819      C1820   1.389       .  A
C1819      H1822   1.073       .  S
C1820      C1866   1.499       .  S
C1821      H1823   1.082       .  S
C1824      C1825   1.397       .  A
C1824      C1829   1.401       .  A
C1825      C1826   1.400       .  A
C1825      H1830   1.086       .  S
C1826      C1827   1.394       .  A
C1827      C1828   1.411       .  A
C1827      H1831   1.082       .  S
C1828      C1829   1.411       .  A
C1829      H1832   1.082       .  S
C1833      C1834   1.402       .  A
C1833      C1838   1.408       .  A
C1833      H1840   1.082       .  S
C1834      C1835   1.416       .  A
C1835      C1836   1.403       .  A
C1835      C1842   1.520       .  S
C1836      C1837   1.409       .  A
C1836      H1841   1.081       .  S
C1837      C1838   1.427       .  A
C1838      C1839   1.518       .  S
C1839      F1843   1.385       .  S
C1839      F1844   1.382       .  S
C1842      F1846   1.382       .  S
C1842      F1847   1.384   1_565  S
C1842      F1848   1.385   1_565  S
C1849      C1850   1.408       .  A
C1849      C1854   1.407       .  A
C1849      H1856   1.082       .  S
C1850      C1851   1.425       .  A
C1851      C1852   1.406       .  A
C1851      C1858   1.518       .  S
C1852      C1853   1.401       .  A
C1852      H1857   1.083       .  S
C1853      C1854   1.418       .  A
C1854      C1855   1.519       .  S
C1855      F1859   1.385       .  S
C1855      F1860   1.381       .  S
C1855      F1861   1.384       .  S
C1858      F1862   1.381       .  S
C1858      F1863   1.378       .  S
C1858      F1864   1.385       .  S
C1865      C1870   1.407       .  A
C1865      H1872   1.082       .  S
C1866      C1867   1.424   1_455  A
C1867      C1868   1.409       .  A
C1867      C1874   1.522   1_655  S
C1868      C1869   1.409       .  A
C1868      H1873   1.080       .  S
C1870      C1871   1.520       .  S
C1871      F1875   1.385       .  S
C1871      F1876   1.383       .  S
C1871      F1877   1.382       .  S
C1874      F1878   1.378       .  S
C1874      F1879   1.383       .  S
C1874      F1880   1.384   1_455  S
C1881      C1882   1.406   1_455  A
C1881      C1886   1.408       .  A
C1881      H1888   1.082       .  S
C1882      C1883   1.423   1_655  A
C1883      C1884   1.408       .  A
C1883      C1890   1.521   1_455  S
C1884      C1885   1.409       .  A
C1884      H1889   1.080       .  S
C1885      C1886   1.423       .  A
C1886      C1887   1.520       .  S
C1887      F1892   1.382       .  S
C1887      F1893   1.383       .  S
C1890      F1894   1.383       .  S
C1890      F1895   1.378       .  S
C1890      F1896   1.383   1_655  S
C1897      C1898   1.403       .  A
C1897      C1902   1.409       .  A
C1897      H1904   1.083       .  S
C1898      C1899   1.415       .  A
C1899      C1900   1.404       .  A
C1899      C1906   1.515       .  S
C1900      C1901   1.400       .  A
C1900      H1905   1.084       .  S
C1901      C1902   1.414       .  A
C1902      C1903   1.518       .  S
C1903      F1908   1.383       .  S
C1906      F1910   1.381       .  S
C1906      F1911   1.383       .  S
C1906      F1912   1.385       .  S
C1913      C1914   1.410       .  A
C1913      C1918   1.404       .  A
C1913      H1920   1.081       .  S
C1914      C1915   1.428       .  A
C1915      C1916   1.407       .  A
C1915      C1922   1.519       .  S
C1916      C1917   1.401       .  A
C1916      H1921   1.083       .  S
C1917      C1918   1.414       .  A
C1918      C1919   1.519       .  S
C1919      F1923   1.385       .  S
C1919      F1924   1.383       .  S
C1919      F1925   1.382       .  S
C1922      F1926   1.383       .  S
C1922      F1928   1.386       .  S
C1929      C1930   1.404       .  A
C1929      C1934   1.406       .  A
C1929      H1936   1.083       .  S
C1930      C1931   1.419       .  A
C1931      C1932   1.406       .  A
C1932      C1933   1.400       .  A
C1933      C1934   1.417       .  A
C1934      C1935   1.520       .  S
C1935      F1939   1.380       .  S
C1935      F1940   1.383       .  S
C1935      F1941   1.380       .  S
C1938      F1943   1.384       .  S
C1938      F1944   1.385       .  S
C1945      C1946   1.406       .  A
C1945      C1950   1.409       .  A
C1945      H1952   1.082       .  S
C1946      C1947   1.424       .  A
C1947      C1948   1.408       .  A
C1947      C1954   1.520       .  S
C1948      C1949   1.403       .  A
C1948      H1953   1.083       .  S
C1949      C1950   1.422       .  A
C1950      C1951   1.520       .  S
C1951      F1955   1.385       .  S
C1951      F1956   1.383       .  S
C1951      F1957   1.381       .  S
C1954      F1958   1.383       .  S
C1954      F1959   1.381       .  S
C1954      F1960   1.385       .  S
N1961      N1962   1.322       .  A
N1961      C1965   1.344       .  A
N1961     Cu1969   2.069       .  S
N1962      C1963   1.345       .  A
N1962     Cu1968   2.080       .  S
C1963      C1964   1.385       .  A
C1963      H1966   1.079       .  S
C1964      C1965   1.383       .  A
C1964      C2322   1.482       .  S
C1965      H1967   1.082       .  S
Cu1968     N1971   2.079       .  S
Cu1969     N1979   2.068       .  S
Cu1970     N1972   2.087       .  S
Cu1970     N1978   2.086       .  S
N1971      N1972   1.323       .  A
N1971      C1975   1.351       .  A
N1972      C1973   1.342       .  A
C1973      C1974   1.384       .  A
C1973      H1976   1.082       .  S
C1974      C1975   1.384       .  A
C1974      C1985   1.475       .  S
C1975      H1977   1.082       .  S
N1978      N1979   1.319       .  A
N1978      C1982   1.346       .  A
N1979      C1980   1.344       .  A
C1980      C1981   1.388       .  A
C1980      H1983   1.077       .  S
C1981      C1982   1.393       .  A
C1981      C2338   1.497       .  S
C1982      H1984   1.082       .  S
C1985      C1986   1.399       .  A
C1985      C1990   1.399       .  A
C1986      H1991   1.081       .  S
C1987      C2020   1.505       .  S
C1988      C1989   1.400       .  A
C1989      C1990   1.406       .  A
C1989      C2086   1.471       .  S
C1990      H1993   1.086       .  S
N1994      N1995   1.320       .  A
N1994      C1998   1.346       .  A
N1994     Cu2002   2.077       .  S
N1995      C1996   1.342       .  A
N1995     Cu2001   2.053       .  S
C1996      C1997   1.379       .  A
C1996      H1999   1.081       .  S
C1997      C1998   1.385       .  A
C1997      C2293   1.471       .  S
C1998      H2000   1.082       .  S
Cu2001     N2004   2.054       .  S
Cu2002     N2012   2.078       .  S
Cu2003     N2005   2.071   1_565  S
Cu2003     N2011   2.072       .  S
N2004      N2005   1.320   1_565  A
N2004      C2008   1.336   1_565  A
N2005      C2006   1.348       .  A
C2006      C2007   1.387       .  A
C2006      H2009   1.082       .  S
C2007      C2008   1.381       .  A
C2008      H2010   1.082       .  S
N2011      N2012   1.323       .  A
N2011      C2015   1.344       .  A
N2012      C2013   1.343       .  A
C2013      C2014   1.385       .  A
C2013      H2016   1.082       .  S
C2014      C2015   1.384       .  A
C2014      C2309   1.483       .  S
C2015      H2017   1.080       .  S
C2018      C2019   1.402       .  A
C2018      C2023   1.400       .  A
C2019      C2020   1.408       .  A
C2020      C2021   1.405       .  A
C2021      C2022   1.404       .  A
C2021      H2025   1.082       .  S
C2022      C2023   1.400       .  A
C2022      C2053   1.468       .  S
C2023      H2026   1.084       .  S
N2027      N2028   1.315       .  A
N2027      C2031   1.343       .  A
N2027     Cu2035   2.066       .  S
N2028      C2029   1.342       .  A
N2028     Cu2034   2.061       .  S
C2029      C2030   1.392       .  A
C2029      H2032   1.075   1_565  S
C2030      C2031   1.395       .  A
C2030      C2306   1.500       .  S
C2031      H2033   1.081       .  S
Cu2035     N2045   2.068       .  S
Cu2036     N2044   2.081       .  S
N2037      N2038   1.323       .  A
N2037      C2041   1.336       .  A
N2038      C2039   1.352       .  A
C2039      C2040   1.384       .  A
C2039      H2042   1.081       .  S
C2040      C2041   1.378       .  A
C2041      H2043   1.083       .  S
N2044      N2045   1.321       .  A
N2044      C2048   1.343       .  A
N2045      C2046   1.342       .  A
C2046      C2047   1.389       .  A
C2046      H2049   1.073       .  S
C2047      C2048   1.392       .  A
C2047      C2274   1.499       .  S
C2048      H2050   1.082       .  S
C2051      C2052   1.399       .  A
C2051      C2056   1.400       .  A
C2052      C2053   1.403       .  A
C2052      H2057   1.086       .  S
C2053      C2054   1.397       .  A
C2054      C2055   1.408       .  A
C2054      H2058   1.083       .  S
C2055      C2056   1.406       .  A
C2055      C2088   1.492       .  S
C2056      H2059   1.084       .  S
N2060      N2061   1.316       .  A
N2060      C2064   1.345       .  A
N2060     Cu2068   2.074       .  S
N2061      C2062   1.342       .  A
N2061     Cu2067   2.065       .  S
C2062      C2063   1.392       .  A
C2062      H2065   1.081       .  S
C2063      C2064   1.394       .  A
C2063      C2261   1.501       .  S
C2064      H2066   1.075       .  S
Cu2067     N2070   2.066       .  S
Cu2068     N2078   2.076       .  S
Cu2069     N2071   2.090       .  S
Cu2069     N2077   2.092       .  S
N2070      N2071   1.320       .  A
N2070      C2074   1.335       .  A
N2071      C2072   1.355       .  A
C2072      C2073   1.393       .  A
C2072      H2075   1.082       .  S
C2073      C2074   1.386       .  A
C2073      C2084   1.491       .  S
C2074      H2076   1.081       .  S
N2077      N2078   1.324       .  A
N2077      C2081   1.345       .  A
N2078      C2079   1.345       .  A
C2079      C2080   1.386       .  A
C2079      H2082   1.078       .  S
C2080      C2081   1.389       .  A
C2080      C2341   1.492       .  S
C2081      H2083   1.082       .  S
C2085      C2086   1.411       .  A
C2085      H2090   1.083   1_556  S
C2086      C2087   1.401       .  A
C2087      C2088   1.393       .  A
C2087      H2091   1.084       .  S
C2088      C2089   1.404       .  A
C2089      H2092   1.078   1_556  S
N2093      N2094   1.319       .  A
N2093      C2097   1.345       .  A
N2093     Cu2101   2.080       .  S
N2094      C2095   1.344       .  A
N2094     Cu2100   2.070       .  S
C2095      C2096   1.389       .  A
C2095      H2098   1.077       .  S
C2096      C2097   1.392       .  A
C2096      C2242   1.497       .  S
C2097      H2099   1.082       .  S
Cu2100     N2103   2.070       .  S
Cu2101     N2111   2.081       .  S
Cu2102     N2104   2.086       .  S
Cu2102     N2110   2.087       .  S
N2103      N2104   1.322       .  A
N2103      C2107   1.340       .  A
N2104      C2105   1.353       .  A
C2106      C2117   1.473       .  S
N2110      N2111   1.325       .  A
N2110      C2114   1.347       .  A
N2111      C2112   1.346       .  A
C2112      C2113   1.380       .  A
C2112      H2115   1.081       .  S
C2113      C2114   1.381       .  A
C2113      C2290   1.475       .  S
C2114      H2116   1.082       .  S
C2117      C2122   1.399       .  A
C2118      C2119   1.412       .  A
C2118      H2123   1.081       .  S
C2119      C2120   1.413       .  A
C2119      C2152   1.504       .  S
C2120      H2124   1.081       .  S
C2121      C2122   1.404       .  A
C2122      H2125   1.086       .  S
N2126      C2130   1.347       .  A
N2127     Cu2133   2.047       .  S
C2128      C2129   1.377       .  A
C2129      C2130   1.387       .  A
C2129      C2325   1.475       .  S
C2130      H2132   1.083       .  S
Cu2133     N2136   2.047       .  S
Cu2134     N2144   2.080   1_545  S
Cu2135     N2137   2.064       .  S
Cu2135     N2143   2.066       .  S
N2136      N2137   1.318       .  A
N2136      C2140   1.340       .  A
N2137      C2138   1.345       .  A
C2138      C2139   1.383       .  A
C2138      H2141   1.082       .  S
C2139      C2140   1.380       .  A
C2140      H2142   1.082       .  S
N2143      N2144   1.323       .  A
N2143      C2147   1.341       .  A
N2144      C2145   1.345   1_565  A
C2145      C2146   1.388   1_545  A
C2146      C2147   1.384       .  A
C2146      C2226   1.486       .  S
C2147      H2149   1.079       .  S
C2150      C2151   1.402   1_554  A
C2150      C2155   1.399   1_554  A
C2151      C2152   1.410       .  A
C2151      H2156   1.080   1_556  S
C2152      C2153   1.405       .  A
C2153      C2154   1.401       .  A
C2153      H2157   1.082       .  S
C2154      C2155   1.395       .  A
C2154      C2218   1.465       .  S
C2155      H2158   1.084   1_556  S
N2159      N2160   1.317       .  A
N2159      C2163   1.346       .  A
N2159     Cu2167   2.078       .  S
N2160      C2161   1.341       .  A
N2160     Cu2166   2.066       .  S
C2161      C2162   1.392       .  A
C2161      H2164   1.081       .  S
C2162      C2163   1.395       .  A
C2162      C2277   1.502       .  S
C2163      H2165   1.075       .  S
Cu2166     N2169   2.066       .  S
Cu2167     N2177   2.080       .  S
Cu2168     N2170   2.075       .  S
Cu2168     N2176   2.076       .  S
N2169      N2170   1.320       .  A
N2169      C2173   1.337       .  A
N2170      C2171   1.350       .  A
C2171      C2172   1.388       .  A
C2171      H2174   1.081       .  S
C2172      C2173   1.386       .  A
C2172      C2183   1.483       .  S
C2173      H2175   1.082       .  S
N2176      N2177   1.323       .  A
N2176      C2180   1.344       .  A
N2177      C2178   1.344       .  A
C2178      C2179   1.386       .  A
C2178      H2181   1.083       .  S
C2179      C2180   1.385       .  A
C2179      C2245   1.486       .  S
C2180      H2182   1.079       .  S
C2183      C2184   1.405       .  A
C2183      C2188   1.408       .  A
C2184      C2185   1.405       .  A
C2184      H2189   1.078       .  S
C2185      C2186   1.398       .  A
C2185      C2220   1.498       .  S
C2186      H2190   1.083       .  S
N2192      N2193   1.316       .  A
N2192      C2196   1.340       .  A
N2192     Cu2200   2.063       .  S
N2193      C2194   1.344       .  A
N2193     Cu2199   2.066       .  S
C2194      C2195   1.393       .  A
C2194      H2197   1.075       .  S
C2195      C2196   1.393       .  A
C2195      C2229   1.502       .  S
Cu2199     N2202   2.067       .  S
Cu2200     N2210   2.065       .  S
Cu2201     N2203   2.080       .  S
Cu2201     N2209   2.081       .  S
N2202      N2203   1.323       .  A
N2202      C2206   1.338       .  A
N2203      C2204   1.351       .  A
C2204      C2205   1.384       .  A
C2204      H2207   1.082       .  S
C2205      C2206   1.378       .  A
C2205      C2216   1.468       .  S
C2206      H2208   1.083       .  S
N2209      N2210   1.320       .  A
N2209      C2213   1.343       .  A
C2211      C2212   1.389       .  A
C2211      H2214   1.073       .  S
C2212      C2258   1.499       .  S
C2213      H2215   1.082       .  S
C2216      C2217   1.397       .  A
C2216      C2221   1.401       .  A
C2217      C2218   1.400       .  A
C2217      H2222   1.086       .  S
C2218      C2219   1.394       .  A
C2219      C2220   1.411       .  A
C2219      H2223   1.082       .  S
C2220      C2221   1.411       .  A
C2221      H2224   1.082       .  S
C2225      C2226   1.402       .  A
C2225      C2230   1.408       .  A
C2225      H2232   1.082       .  S
C2226      C2227   1.416       .  A
C2227      C2228   1.403       .  A
C2227      C2234   1.520       .  S
C2228      C2229   1.409       .  A
C2228      H2233   1.081       .  S
C2229      C2230   1.427       .  A
C2230      C2231   1.518       .  S
C2231      F2235   1.385       .  S
C2231      F2236   1.382       .  S
C2234      F2238   1.382       .  S
C2234      F2239   1.384   1_565  S
C2234      F2240   1.385   1_565  S
C2241      C2242   1.408       .  A
C2241      C2246   1.407       .  A
C2241      H2248   1.082       .  S
C2242      C2243   1.425       .  A
C2243      C2244   1.406       .  A
C2243      C2250   1.518       .  S
C2244      C2245   1.401       .  A
C2244      H2249   1.083       .  S
C2245      C2246   1.418       .  A
C2246      C2247   1.519       .  S
C2247      F2251   1.385       .  S
C2247      F2252   1.381       .  S
C2247      F2253   1.384       .  S
C2250      F2254   1.381       .  S
C2250      F2255   1.378       .  S
C2250      F2256   1.385       .  S
C2257      C2262   1.407       .  A
C2257      H2264   1.082       .  S
C2258      C2259   1.424   1_455  A
C2259      C2260   1.409       .  A
C2259      C2266   1.522   1_655  S
C2260      C2261   1.409       .  A
C2260      H2265   1.080       .  S
C2262      C2263   1.520       .  S
C2263      F2267   1.385       .  S
C2263      F2268   1.383       .  S
C2263      F2269   1.382       .  S
C2266      F2270   1.378       .  S
C2266      F2271   1.383       .  S
C2266      F2272   1.384   1_455  S
C2273      C2274   1.406   1_455  A
C2273      C2278   1.408       .  A
C2273      H2280   1.082       .  S
C2274      C2275   1.423   1_655  A
C2275      C2276   1.408       .  A
C2275      C2282   1.521   1_455  S
C2276      C2277   1.409       .  A
C2276      H2281   1.080       .  S
C2277      C2278   1.423       .  A
C2278      C2279   1.520       .  S
C2279      F2284   1.382       .  S
C2279      F2285   1.383       .  S
C2282      F2286   1.383       .  S
C2282      F2287   1.378       .  S
C2282      F2288   1.383   1_655  S
C2289      C2290   1.403       .  A
C2289      C2294   1.409       .  A
C2289      H2296   1.083       .  S
C2290      C2291   1.415       .  A
C2291      C2292   1.404       .  A
C2291      C2298   1.515       .  S
C2292      C2293   1.400       .  A
C2292      H2297   1.084       .  S
C2293      C2294   1.414       .  A
C2294      C2295   1.518       .  S
C2295      F2300   1.383       .  S
C2298      F2302   1.381       .  S
C2298      F2303   1.383       .  S
C2298      F2304   1.385       .  S
C2305      C2306   1.410       .  A
C2305      C2310   1.404       .  A
C2305      H2312   1.081       .  S
C2306      C2307   1.428       .  A
C2307      C2308   1.407       .  A
C2307      C2314   1.519       .  S
C2308      C2309   1.401       .  A
C2308      H2313   1.083       .  S
C2309      C2310   1.414       .  A
C2310      C2311   1.519       .  S
C2311      F2315   1.385       .  S
C2311      F2316   1.383       .  S
C2311      F2317   1.382       .  S
C2314      F2318   1.383       .  S
C2314      F2320   1.386       .  S
C2321      C2322   1.404       .  A
C2321      C2326   1.406       .  A
C2321      H2328   1.083       .  S
C2322      C2323   1.419       .  A
C2323      C2324   1.406       .  A
C2324      C2325   1.400       .  A
C2325      C2326   1.417       .  A
C2326      C2327   1.520       .  S
C2327      F2331   1.380       .  S
C2327      F2332   1.383       .  S
C2327      F2333   1.380       .  S
C2330      F2335   1.384       .  S
C2330      F2336   1.385       .  S
C2337      C2338   1.406       .  A
C2337      C2342   1.409       .  A
C2337      H2344   1.082       .  S
C2338      C2339   1.424       .  A
C2339      C2340   1.408       .  A
C2339      C2346   1.520       .  S
C2340      C2341   1.403       .  A
C2340      H2345   1.083       .  S
C2341      C2342   1.422       .  A
C2342      C2343   1.520       .  S
C2343      F2347   1.385       .  S
C2343      F2348   1.383       .  S
C2343      F2349   1.381       .  S
C2346      F2350   1.383       .  S
C2346      F2351   1.381       .  S
C2346      F2352   1.385       .  S
